$ -------------------------------------------------------------------- $
$ WAVEWATCH III Grid preprocessor input file                           $
$ -------------------------------------------------------------------- $
$
  'COSMO MET'
$
   1.1  0.04118  25  36  0.
   F T T T F T 
   1800.  270.  300.  10. 
$
END OF NAMELISTS
$ 
    'RECT'  T  'NONE'
     866      1039
     1   1   16 
     -72      -49.90   1.
     -0.1  2.50  10  -1000.  2 1 '(....)'  'NAME'  'unit'
$
    899774*1
$
    10 1 1 '(....)' 'PART' 'unit'
$
      0   0   F 
      0   0   F
      0   0
      0.  0.  0.  0.   0
$
$ ------------------------------------------------ 
$ End of input file 
$ ------------------------------------------------ 

