$ -------------------------------------------------------------------- $
$ WAVEWATCH III Grid preprocessor input file                           $
$ -------------------------------------------------------------------- $
$
  'ICE GLOBAL '
$
   1.1  0.04118  25  36  0.
   F T T T F T 
   3600.  360.  360.  20.
$
END OF NAMELISTS
$ 
    'RECT'  T  'SMPL'
     720 	 360 
     30.      30.     60.
     0.25    -89.75    1.
     -0.1  2.50  10  -1000.  2 1 '(....)'  'NAME'  'input'
$
    259200*1
$
    10 1 1 '(....)' 'PART' 'input'
$
      0   0   F 
      0   0   F
      0   0
      0.  0.  0.  0.   0
$
$ ------------------------------------------------ 
$ End of input file 
$ ------------------------------------------------ 

