$ -------------------------------------------------------------------- $
$ WAVEWATCH III Grid preprocessor input file                           $
$ -------------------------------------------------------------------- $
$
  'GFS 12 GLOBAL '
$
   1.1  0.04118  25  36  0.
   F T T T F T 
   3600.  360.  360.  10. 
$
END OF NAMELISTS
$ 
    'RECT'  T  'NONE'
    3072     1536
    1.     1.     8.55
    0.     -89.91032556417134     1.
    -0.1  2.50  10  -1000.  2 1 '(....)'  'NAME'  'unit'
$
    4718592*1
$
    10 1 1 '(....)' 'PART' 'unit'
$
      0   0   F 
      0   0   F
      0   0
      0.  0.  0.  0.   0
$
$ ------------------------------------------------ 
$ End of input file 
$ ------------------------------------------------ 

