$ -------------------------------------------------------------------- $
$ WAVEWATCH III Grid preprocessor input file                           $
$ -------------------------------------------------------------------- $
$
  'ICON GLO '
$
   1.1  0.04118  25  36  0.
   F T T T F T 
   3600.  360.  360.  20. 
$
END OF NAMELISTS
$ 
    'RECT'  T  'NONE'
     2879     1441
     1     1    8
     0    -90    1.
     -0.1  2.50  10  -1000.  2 1 '(....)'  'NAME'  'unit'
$
    4148639*1
$
    10 1 1 '(....)' 'PART' 'unit'
$
      0   0   F 
      0   0   F
      0   0
      0.  0.  0.  0.   0
$
$ ------------------------------------------------ 
$ End of input file 
$ ------------------------------------------------ 

