 Rodada 20190827 00
 
 Iniciando a rodada do WW3gfs Data e HH: 2019082700
 
 
 Linkando mod.def da área:  glo_gfs
 

 Linkando e restart da área:  glo_gfs

 
 Linkando mod.def da área:  met5_gfs
 

 Linkando e restart da área:  met5_gfs

 
 Linkando mod.def da área:  ant5_gfs
 

 Linkando e restart da área:  ant5_gfs

 
 Linkando os mod.def do vento, points, ice e dados de entrada 
 

 Linkando vento gfs 20190827 00


 Linkando gelo para a data: 20190826


 Iniciando Execução WW3/gfs data: 2019082700

MPT: libxmpi.so 'HPE MPT 2.17  11/01/17 04:28:44'
MPT: libmpi_mt.so  'HPE MPT 2.17  11/01/17 04:27:42'
	MPT Environmental Settings
MPT: MPI_VERBOSE (default: disabled) : enabled
MPT: MPI_IB_RECV_MSGS (default: 512) : 1024
MPT: Using the InfiniBand RC interconnect on fabric 0x0
MPT: Using the InfiniBand UD interconnect on fabric 0x0

                    *** WAVEWATCH III Multi-grid shell ***    
               =================================================

 ========== STARTING MWW3 INITIALIZATION (WMINIT) =============================

  Opening input file ww3_multi.inp (unit number  8)
  Opening output file log.mww3 (unit number  9)

  Comment character : '$'

 *** WAVEWATCH III ERROR IN NEXTLN : 
     ERROR ON BACKSPACE
     IOSTAT =  264
     IOMSG = operation requires file to be on disk or tape, unit 8, file /data1/ww3desenv/home/mod_ondas/work/./ww3_multi.inp

 w3servmd MPI_ABORT, IEXIT=           3
 w3servmd UNIT missing
 w3servmd MSG missing
 w3servmd FILE missing
 w3servmd LINE missing
 w3servmd MPI_ABORT, IEXIT=           3
 w3servmd UNIT missing
 w3servmd MSG missing
 w3servmd FILE missing
 w3servmd LINE missing
 w3servmd COMM missing
 w3servmd MPI_ABORT, IEXIT=           3
 w3servmd UNIT missing
 w3servmd MSG missing
 w3servmd FILE missing
 w3servmd LINE missing
 w3servmd COMM missing
 w3servmd MPI_ABORT, IEXIT=           3
 w3servmd UNIT missing
 w3servmd MSG missing
 w3servmd FILE missing
 w3servmd LINE missing
 w3servmd COMM missing
 w3servmd MPI_ABORT, IEXIT=           3
 w3servmd UNIT missing
 w3servmd MSG missing
 w3servmd FILE missing
 w3servmd LINE missing
 w3servmd COMM missing
 w3servmd MPI_ABORT, IEXIT=           3
 w3servmd UNIT missing
 w3servmd MSG missing
 w3servmd FILE missing
 w3servmd LINE missing
 w3servmd COMM missing
 w3servmd COMM missing
 w3servmd MPI_ABORT, IEXIT=           3
 w3servmd UNIT missing
 w3servmd MSG missing
 w3servmd FILE missing
 w3servmd LINE missing
 w3servmd COMM missing
 w3servmd MPI_ABORT, IEXIT=           3
 w3servmd UNIT missing
 w3servmd MSG missing
 w3servmd FILE missing
 w3servmd LINE missing
 w3servmd COMM missing
 w3servmd MPI_ABORT, IEXIT=           3
 w3servmd UNIT missing
 w3servmd MSG missing
 w3servmd FILE missing
 w3servmd LINE missing
 w3servmd COMM missing
 w3servmd MPI_ABORT, IEXIT=           3
 w3servmd UNIT missing
 w3servmd MSG missing
 w3servmd FILE missing
 w3servmd LINE missing
 w3servmd COMM missing
 w3servmd MPI_ABORT, IEXIT=           3
 w3servmd UNIT missing
 w3servmd MSG missing
 w3servmd FILE missing
 w3servmd LINE missing
 w3servmd COMM missing
MPT ERROR: Rank 0(g:0) is aborting with error code 3.
	Process ID: 19449, Host: r1i1n2, Program: /data1/ww3desenv/home/wavewatch/ww3v607/model/exe/ww3_multi
	MPT Version: HPE MPT 2.17  11/01/17 04:27:42

MPT: --------stack traceback-------
 w3servmd MPI_ABORT, IEXIT=           3
 w3servmd UNIT missing
 w3servmd MSG missing
 w3servmd FILE missing
 w3servmd LINE missing
 w3servmd COMM missing
 w3servmd MPI_ABORT, IEXIT=           3
 w3servmd UNIT missing
 w3servmd MSG missing
 w3servmd FILE missing
 w3servmd LINE missing
 w3servmd COMM missing
 w3servmd MPI_ABORT, IEXIT=           3
 w3servmd UNIT missing
 w3servmd MSG missing
 w3servmd FILE missing
 w3servmd LINE missing
 w3servmd COMM missing
 w3servmd MPI_ABORT, IEXIT=           3
 w3servmd UNIT missing
 w3servmd MSG missing
 w3servmd FILE missing
 w3servmd LINE missing
 w3servmd COMM missing
 w3servmd MPI_ABORT, IEXIT=           3
 w3servmd UNIT missing
 w3servmd MSG missing
 w3servmd FILE missing
 w3servmd LINE missing
 w3servmd COMM missing
 w3servmd MPI_ABORT, IEXIT=           3
 w3servmd UNIT missing
 w3servmd MSG missing
 w3servmd FILE missing
 w3servmd LINE missing
 w3servmd MPI_ABORT, IEXIT=           3
 w3servmd UNIT missing
 w3servmd MSG missing
 w3servmd FILE missing
 w3servmd LINE missing
 w3servmd COMM missing
 w3servmd MPI_ABORT, IEXIT=           3
 w3servmd UNIT missing
 w3servmd MSG missing
 w3servmd FILE missing
 w3servmd LINE missing
 w3servmd COMM missing
 w3servmd MPI_ABORT, IEXIT=           3
 w3servmd UNIT missing
 w3servmd MSG missing
 w3servmd FILE missing
 w3servmd LINE missing
 w3servmd COMM missing
 w3servmd MPI_ABORT, IEXIT=           3
 w3servmd UNIT missing
 w3servmd MSG missing
 w3servmd FILE missing
 w3servmd LINE missing
 w3servmd COMM missing
 w3servmd MPI_ABORT, IEXIT=           3
 w3servmd UNIT missing
 w3servmd MSG missing
 w3servmd FILE missing
 w3servmd LINE missing
 w3servmd COMM missing
 w3servmd MPI_ABORT, IEXIT=           3
 w3servmd UNIT missing
 w3servmd MSG missing
 w3servmd FILE missing
 w3servmd LINE missing
 w3servmd COMM missing
 w3servmd MPI_ABORT, IEXIT=           3
 w3servmd UNIT missing
 w3servmd MSG missing
 w3servmd FILE missing
 w3servmd LINE missing
 w3servmd COMM missing
 w3servmd MPI_ABORT, IEXIT=           3
 w3servmd UNIT missing
 w3servmd MSG missing
 w3servmd FILE missing
 w3servmd LINE missing
 w3servmd COMM missing
 w3servmd MPI_ABORT, IEXIT=           3
 w3servmd UNIT missing
 w3servmd MSG missing
 w3servmd FILE missing
 w3servmd LINE missing
 w3servmd COMM missing
 w3servmd MPI_ABORT, IEXIT=           3
 w3servmd UNIT missing
 w3servmd MSG missing
 w3servmd FILE missing
 w3servmd LINE missing
 w3servmd COMM missing
 w3servmd MPI_ABORT, IEXIT=           3
 w3servmd UNIT missing
 w3servmd MSG missing
 w3servmd FILE missing
 w3servmd LINE missing
 w3servmd COMM missing
 w3servmd MPI_ABORT, IEXIT=           3
 w3servmd UNIT missing
 w3servmd MSG missing
 w3servmd FILE missing
 w3servmd LINE missing
 w3servmd COMM missing
 w3servmd MPI_ABORT, IEXIT=           3
 w3servmd UNIT missing
 w3servmd MSG missing
 w3servmd FILE missing
 w3servmd LINE missing
 w3servmd COMM missing
 w3servmd MPI_ABORT, IEXIT=           3
 w3servmd UNIT missing
 w3servmd MSG missing
 w3servmd FILE missing
 w3servmd LINE missing
 w3servmd COMM missing
 w3servmd MPI_ABORT, IEXIT=           3
 w3servmd UNIT missing
 w3servmd MSG missing
 w3servmd FILE missing
 w3servmd LINE missing
 w3servmd COMM missing
 w3servmd MPI_ABORT, IEXIT=           3
 w3servmd UNIT missing
 w3servmd MSG missing
 w3servmd FILE missing
 w3servmd LINE missing
 w3servmd COMM missing
 w3servmd MPI_ABORT, IEXIT=           3
 w3servmd UNIT missing
 w3servmd MSG missing
 w3servmd FILE missing
 w3servmd LINE missing
 w3servmd COMM missing
 w3servmd MPI_ABORT, IEXIT=           3
 w3servmd UNIT missing
 w3servmd MSG missing
 w3servmd FILE missing
 w3servmd LINE missing
 w3servmd COMM missing
 w3servmd MPI_ABORT, IEXIT=           3
 w3servmd UNIT missing
 w3servmd MSG missing
 w3servmd FILE missing
 w3servmd LINE missing
 w3servmd COMM missing
 w3servmd MPI_ABORT, IEXIT=           3
 w3servmd UNIT missing
 w3servmd MSG missing
 w3servmd FILE missing
 w3servmd LINE missing
 w3servmd COMM missing
 w3servmd MPI_ABORT, IEXIT=           3
 w3servmd UNIT missing
 w3servmd MSG missing
 w3servmd FILE missing
 w3servmd LINE missing
 w3servmd COMM missing
 w3servmd MPI_ABORT, IEXIT=           3
 w3servmd UNIT missing
 w3servmd MSG missing
 w3servmd FILE missing
 w3servmd LINE missing
 w3servmd COMM missing
 w3servmd MPI_ABORT, IEXIT=           3
 w3servmd UNIT missing
 w3servmd MSG missing
 w3servmd FILE missing
 w3servmd LINE missing
 w3servmd COMM missing
 w3servmd MPI_ABORT, IEXIT=           3
 w3servmd UNIT missing
 w3servmd MSG missing
 w3servmd FILE missing
 w3servmd LINE missing
 w3servmd COMM missing
 w3servmd MPI_ABORT, IEXIT=           3
 w3servmd UNIT missing
 w3servmd MSG missing
 w3servmd FILE missing
 w3servmd LINE missing
 w3servmd COMM missing
 w3servmd MPI_ABORT, IEXIT=           3
 w3servmd UNIT missing
 w3servmd MSG missing
 w3servmd FILE missing
 w3servmd LINE missing
 w3servmd COMM missing
 w3servmd MPI_ABORT, IEXIT=           3
 w3servmd UNIT missing
 w3servmd MSG missing
 w3servmd FILE missing
 w3servmd LINE missing
 w3servmd COMM missing
 w3servmd MPI_ABORT, IEXIT=           3
 w3servmd UNIT missing
 w3servmd MSG missing
 w3servmd FILE missing
 w3servmd LINE missing
 w3servmd COMM missing
 w3servmd MPI_ABORT, IEXIT=           3
 w3servmd UNIT missing
 w3servmd MSG missing
 w3servmd FILE missing
 w3servmd LINE missing
 w3servmd COMM missing
 w3servmd MPI_ABORT, IEXIT=           3
 w3servmd UNIT missing
 w3servmd MSG missing
 w3servmd FILE missing
 w3servmd LINE missing
 w3servmd COMM missing
 w3servmd MPI_ABORT, IEXIT=           3
 w3servmd UNIT missing
 w3servmd MSG missing
 w3servmd FILE missing
 w3servmd LINE missing
 w3servmd COMM missing
 w3servmd MPI_ABORT, IEXIT=           3
 w3servmd UNIT missing
 w3servmd MSG missing
 w3servmd FILE missing
 w3servmd LINE missing
 w3servmd COMM missing
 w3servmd MPI_ABORT, IEXIT=           3
 w3servmd UNIT missing
 w3servmd MSG missing
 w3servmd FILE missing
 w3servmd LINE missing
 w3servmd COMM missing
 w3servmd MPI_ABORT, IEXIT=           3
 w3servmd UNIT missing
 w3servmd MSG missing
 w3servmd FILE missing
 w3servmd LINE missing
 w3servmd COMM missing
 w3servmd MPI_ABORT, IEXIT=           3
 w3servmd UNIT missing
 w3servmd MSG missing
 w3servmd FILE missing
 w3servmd LINE missing
 w3servmd COMM missing
 w3servmd MPI_ABORT, IEXIT=           3
 w3servmd UNIT missing
 w3servmd MSG missing
 w3servmd FILE missing
 w3servmd LINE missing
 w3servmd COMM missing
 w3servmd MPI_ABORT, IEXIT=           3
 w3servmd UNIT missing
 w3servmd MSG missing
 w3servmd FILE missing
 w3servmd LINE missing
 w3servmd COMM missing
 w3servmd MPI_ABORT, IEXIT=           3
 w3servmd UNIT missing
 w3servmd MSG missing
 w3servmd FILE missing
 w3servmd LINE missing
 w3servmd COMM missing
 w3servmd MPI_ABORT, IEXIT=           3
 w3servmd UNIT missing
 w3servmd MSG missing
 w3servmd FILE missing
 w3servmd LINE missing
 w3servmd COMM missing
 w3servmd MPI_ABORT, IEXIT=           3
 w3servmd UNIT missing
 w3servmd MSG missing
 w3servmd FILE missing
 w3servmd LINE missing
 w3servmd COMM missing
 w3servmd MPI_ABORT, IEXIT=           3
 w3servmd UNIT missing
 w3servmd MSG missing
 w3servmd FILE missing
 w3servmd LINE missing
 w3servmd COMM missing
 w3servmd COMM missing
 w3servmd MPI_ABORT, IEXIT=           3
 w3servmd UNIT missing
 w3servmd MSG missing
 w3servmd FILE missing
 w3servmd LINE missing
 w3servmd COMM missing
 w3servmd MPI_ABORT, IEXIT=           3
 w3servmd UNIT missing
 w3servmd MSG missing
 w3servmd FILE missing
 w3servmd LINE missing
 w3servmd COMM missing
 w3servmd MPI_ABORT, IEXIT=           3
 w3servmd UNIT missing
 w3servmd MSG missing
 w3servmd FILE missing
 w3servmd LINE missing
 w3servmd COMM missing
 w3servmd MPI_ABORT, IEXIT=           3
 w3servmd UNIT missing
 w3servmd MSG missing
 w3servmd FILE missing
 w3servmd LINE missing
 w3servmd COMM missing
 w3servmd MPI_ABORT, IEXIT=           3
 w3servmd UNIT missing
 w3servmd MSG missing
 w3servmd FILE missing
 w3servmd LINE missing
 w3servmd COMM missing
 w3servmd MPI_ABORT, IEXIT=           3
 w3servmd UNIT missing
 w3servmd MSG missing
 w3servmd FILE missing
 w3servmd LINE missing
 w3servmd COMM missing
 w3servmd MPI_ABORT, IEXIT=           3
 w3servmd UNIT missing
 w3servmd MSG missing
 w3servmd FILE missing
 w3servmd LINE missing
 w3servmd COMM missing
 w3servmd MPI_ABORT, IEXIT=           3
 w3servmd UNIT missing
 w3servmd MSG missing
 w3servmd FILE missing
 w3servmd LINE missing
 w3servmd COMM missing
 w3servmd MPI_ABORT, IEXIT=           3
 w3servmd UNIT missing
 w3servmd MSG missing
 w3servmd FILE missing
 w3servmd LINE missing
 w3servmd COMM missing
 w3servmd MPI_ABORT, IEXIT=           3
 w3servmd UNIT missing
 w3servmd MSG missing
 w3servmd FILE missing
 w3servmd LINE missing
 w3servmd COMM missing
 w3servmd MPI_ABORT, IEXIT=           3
 w3servmd UNIT missing
 w3servmd MSG missing
 w3servmd FILE missing
 w3servmd LINE missing
 w3servmd COMM missing
 w3servmd MPI_ABORT, IEXIT=           3
 w3servmd UNIT missing
 w3servmd MSG missing
 w3servmd FILE missing
 w3servmd LINE missing
 w3servmd COMM missing
 w3servmd MPI_ABORT, IEXIT=           3
 w3servmd UNIT missing
 w3servmd MSG missing
 w3servmd FILE missing
 w3servmd LINE missing
 w3servmd COMM missing
 w3servmd MPI_ABORT, IEXIT=           3
 w3servmd UNIT missing
 w3servmd MSG missing
 w3servmd FILE missing
 w3servmd LINE missing
 w3servmd COMM missing
 w3servmd MPI_ABORT, IEXIT=           3
 w3servmd UNIT missing
 w3servmd MSG missing
 w3servmd FILE missing
 w3servmd LINE missing
 w3servmd COMM missing
 w3servmd MPI_ABORT, IEXIT=           3
 w3servmd UNIT missing
 w3servmd MSG missing
 w3servmd FILE missing
 w3servmd LINE missing
 w3servmd COMM missing
 w3servmd MPI_ABORT, IEXIT=           3
 w3servmd UNIT missing
 w3servmd MSG missing
 w3servmd FILE missing
 w3servmd LINE missing
 w3servmd COMM missing
 w3servmd MPI_ABORT, IEXIT=           3
 w3servmd UNIT missing
 w3servmd MSG missing
 w3servmd FILE missing
 w3servmd LINE missing
 w3servmd COMM missing
 w3servmd MPI_ABORT, IEXIT=           3
 w3servmd UNIT missing
 w3servmd MSG missing
 w3servmd FILE missing
 w3servmd LINE missing
 w3servmd COMM missing
 w3servmd MPI_ABORT, IEXIT=           3
 w3servmd UNIT missing
 w3servmd MSG missing
 w3servmd FILE missing
 w3servmd LINE missing
 w3servmd COMM missing
 w3servmd MPI_ABORT, IEXIT=           3
 w3servmd UNIT missing
 w3servmd MSG missing
 w3servmd FILE missing
 w3servmd LINE missing
 w3servmd COMM missing
 w3servmd MPI_ABORT, IEXIT=           3
 w3servmd UNIT missing
 w3servmd MSG missing
 w3servmd FILE missing
 w3servmd LINE missing
 w3servmd COMM missing
 w3servmd MPI_ABORT, IEXIT=           3
 w3servmd UNIT missing
 w3servmd MSG missing
 w3servmd FILE missing
 w3servmd LINE missing
 w3servmd COMM missing
 w3servmd MPI_ABORT, IEXIT=           3
 w3servmd UNIT missing
 w3servmd MSG missing
 w3servmd FILE missing
 w3servmd LINE missing
 w3servmd COMM missing
 w3servmd MPI_ABORT, IEXIT=           3
 w3servmd UNIT missing
 w3servmd MSG missing
 w3servmd FILE missing
 w3servmd LINE missing
 w3servmd COMM missing
 w3servmd MPI_ABORT, IEXIT=           3
 w3servmd UNIT missing
 w3servmd MSG missing
 w3servmd FILE missing
 w3servmd LINE missing
 w3servmd COMM missing
 w3servmd MPI_ABORT, IEXIT=           3
 w3servmd UNIT missing
 w3servmd MSG missing
 w3servmd FILE missing
 w3servmd LINE missing
 w3servmd COMM missing
 w3servmd MPI_ABORT, IEXIT=           3
 w3servmd UNIT missing
 w3servmd MSG missing
 w3servmd FILE missing
 w3servmd LINE missing
 w3servmd COMM missing
 w3servmd MPI_ABORT, IEXIT=           3
 w3servmd UNIT missing
 w3servmd MSG missing
 w3servmd FILE missing
 w3servmd LINE missing
 w3servmd COMM missing
 w3servmd MPI_ABORT, IEXIT=           3
 w3servmd UNIT missing
 w3servmd MSG missing
 w3servmd FILE missing
 w3servmd LINE missing
 w3servmd COMM missing
 w3servmd MPI_ABORT, IEXIT=           3
 w3servmd UNIT missing
 w3servmd MSG missing
 w3servmd FILE missing
 w3servmd LINE missing
 w3servmd COMM missing
 w3servmd MPI_ABORT, IEXIT=           3
 w3servmd UNIT missing
 w3servmd MSG missing
 w3servmd FILE missing
 w3servmd LINE missing
 w3servmd COMM missing
 w3servmd MPI_ABORT, IEXIT=           3
 w3servmd UNIT missing
 w3servmd MSG missing
 w3servmd FILE missing
 w3servmd LINE missing
 w3servmd COMM missing
 w3servmd MPI_ABORT, IEXIT=           3
 w3servmd UNIT missing
 w3servmd MSG missing
 w3servmd FILE missing
 w3servmd LINE missing
 w3servmd COMM missing
 w3servmd MPI_ABORT, IEXIT=           3
 w3servmd UNIT missing
 w3servmd MSG missing
 w3servmd FILE missing
 w3servmd LINE missing
 w3servmd COMM missing
 w3servmd MPI_ABORT, IEXIT=           3
 w3servmd UNIT missing
 w3servmd MSG missing
 w3servmd FILE missing
 w3servmd LINE missing
 w3servmd COMM missing
 w3servmd MPI_ABORT, IEXIT=           3
 w3servmd UNIT missing
 w3servmd MSG missing
 w3servmd FILE missing
 w3servmd LINE missing
 w3servmd COMM missing
 w3servmd MPI_ABORT, IEXIT=           3
 w3servmd UNIT missing
 w3servmd MSG missing
 w3servmd FILE missing
 w3servmd LINE missing
 w3servmd COMM missing
 w3servmd MPI_ABORT, IEXIT=           3
 w3servmd UNIT missing
 w3servmd MSG missing
 w3servmd FILE missing
 w3servmd LINE missing
 w3servmd COMM missing
 w3servmd MPI_ABORT, IEXIT=           3
 w3servmd UNIT missing
 w3servmd MSG missing
 w3servmd FILE missing
 w3servmd LINE missing
 w3servmd COMM missing
 w3servmd MPI_ABORT, IEXIT=           3
 w3servmd UNIT missing
 w3servmd MSG missing
 w3servmd FILE missing
 w3servmd LINE missing
 w3servmd COMM missing
 w3servmd MPI_ABORT, IEXIT=           3
 w3servmd UNIT missing
 w3servmd MSG missing
 w3servmd FILE missing
 w3servmd LINE missing
 w3servmd COMM missing
 w3servmd MPI_ABORT, IEXIT=           3
 w3servmd UNIT missing
 w3servmd MSG missing
 w3servmd FILE missing
 w3servmd LINE missing
 w3servmd COMM missing
 w3servmd MPI_ABORT, IEXIT=           3
 w3servmd UNIT missing
 w3servmd MSG missing
 w3servmd FILE missing
 w3servmd LINE missing
 w3servmd COMM missing
 w3servmd MPI_ABORT, IEXIT=           3
 w3servmd UNIT missing
 w3servmd MSG missing
 w3servmd FILE missing
 w3servmd LINE missing
 w3servmd COMM missing
 w3servmd MPI_ABORT, IEXIT=           3
 w3servmd UNIT missing
 w3servmd MSG missing
 w3servmd FILE missing
 w3servmd LINE missing
 w3servmd COMM missing
 w3servmd MPI_ABORT, IEXIT=           3
 w3servmd UNIT missing
 w3servmd MSG missing
 w3servmd FILE missing
 w3servmd LINE missing
 w3servmd COMM missing
 w3servmd MPI_ABORT, IEXIT=           3
 w3servmd UNIT missing
 w3servmd MSG missing
 w3servmd FILE missing
 w3servmd LINE missing
 w3servmd COMM missing
 w3servmd MPI_ABORT, IEXIT=           3
 w3servmd UNIT missing
 w3servmd MSG missing
 w3servmd FILE missing
 w3servmd LINE missing
 w3servmd COMM missing
 w3servmd MPI_ABORT, IEXIT=           3
 w3servmd UNIT missing
 w3servmd MSG missing
 w3servmd FILE missing
 w3servmd LINE missing
 w3servmd COMM missing
 w3servmd MPI_ABORT, IEXIT=           3
 w3servmd UNIT missing
 w3servmd MSG missing
 w3servmd FILE missing
 w3servmd LINE missing
 w3servmd COMM missing
 w3servmd MPI_ABORT, IEXIT=           3
 w3servmd UNIT missing
 w3servmd MSG missing
 w3servmd FILE missing
 w3servmd LINE missing
 w3servmd COMM missing
 w3servmd MPI_ABORT, IEXIT=           3
 w3servmd UNIT missing
 w3servmd MSG missing
 w3servmd FILE missing
 w3servmd LINE missing
 w3servmd COMM missing
 w3servmd MPI_ABORT, IEXIT=           3
 w3servmd UNIT missing
 w3servmd MSG missing
 w3servmd FILE missing
 w3servmd LINE missing
 w3servmd COMM missing
 w3servmd MPI_ABORT, IEXIT=           3
 w3servmd UNIT missing
 w3servmd MSG missing
 w3servmd FILE missing
 w3servmd LINE missing
 w3servmd COMM missing
 w3servmd MPI_ABORT, IEXIT=           3
 w3servmd UNIT missing
 w3servmd MSG missing
 w3servmd FILE missing
 w3servmd LINE missing
 w3servmd COMM missing
 w3servmd MPI_ABORT, IEXIT=           3
 w3servmd UNIT missing
 w3servmd MSG missing
 w3servmd FILE missing
 w3servmd LINE missing
 w3servmd COMM missing
 w3servmd MPI_ABORT, IEXIT=           3
 w3servmd UNIT missing
 w3servmd MSG missing
 w3servmd FILE missing
 w3servmd LINE missing
 w3servmd COMM missing
 w3servmd MPI_ABORT, IEXIT=           3
 w3servmd UNIT missing
 w3servmd MSG missing
 w3servmd FILE missing
 w3servmd LINE missing
 w3servmd COMM missing
 w3servmd MPI_ABORT, IEXIT=           3
 w3servmd UNIT missing
 w3servmd MSG missing
 w3servmd FILE missing
 w3servmd LINE missing
 w3servmd COMM missing
 w3servmd MPI_ABORT, IEXIT=           3
 w3servmd UNIT missing
 w3servmd MSG missing
 w3servmd FILE missing
 w3servmd LINE missing
 w3servmd COMM missing
 w3servmd MPI_ABORT, IEXIT=           3
 w3servmd UNIT missing
 w3servmd MSG missing
 w3servmd FILE missing
 w3servmd LINE missing
 w3servmd COMM missing
 w3servmd MPI_ABORT, IEXIT=           3
 w3servmd UNIT missing
 w3servmd MSG missing
 w3servmd FILE missing
 w3servmd LINE missing
 w3servmd COMM missing
 w3servmd MPI_ABORT, IEXIT=           3
 w3servmd UNIT missing
 w3servmd MSG missing
 w3servmd FILE missing
 w3servmd LINE missing
 w3servmd COMM missing
 w3servmd MPI_ABORT, IEXIT=           3
 w3servmd UNIT missing
 w3servmd MSG missing
 w3servmd FILE missing
 w3servmd LINE missing
 w3servmd COMM missing
 w3servmd MPI_ABORT, IEXIT=           3
 w3servmd UNIT missing
 w3servmd MSG missing
 w3servmd FILE missing
 w3servmd LINE missing
 w3servmd COMM missing
 w3servmd MPI_ABORT, IEXIT=           3
 w3servmd UNIT missing
 w3servmd MSG missing
 w3servmd FILE missing
 w3servmd LINE missing
 w3servmd COMM missing
 w3servmd MPI_ABORT, IEXIT=           3
 w3servmd UNIT missing
 w3servmd MSG missing
 w3servmd FILE missing
 w3servmd LINE missing
 w3servmd COMM missing
 w3servmd MPI_ABORT, IEXIT=           3
 w3servmd UNIT missing
 w3servmd MSG missing
 w3servmd FILE missing
 w3servmd LINE missing
 w3servmd COMM missing
 w3servmd MPI_ABORT, IEXIT=           3
 w3servmd UNIT missing
 w3servmd MSG missing
 w3servmd FILE missing
 w3servmd LINE missing
 w3servmd COMM missing
 w3servmd MPI_ABORT, IEXIT=           3
 w3servmd UNIT missing
 w3servmd MSG missing
 w3servmd FILE missing
 w3servmd LINE missing
 w3servmd COMM missing
 w3servmd MPI_ABORT, IEXIT=           3
 w3servmd UNIT missing
 w3servmd MSG missing
 w3servmd FILE missing
 w3servmd LINE missing
 w3servmd COMM missing
MPT ERROR: Rank 133(g:133) is aborting with error code 3.
	Process ID: 36726, Host: r1i1n8, Program: /data1/ww3desenv/home/wavewatch/ww3v607/model/exe/ww3_multi
	MPT Version: HPE MPT 2.17  11/01/17 04:27:42

MPT: --------stack traceback-------
MPT ERROR: Rank 121(g:121) is aborting with error code 3.
	Process ID: 39034, Host: r1i1n7, Program: /data1/ww3desenv/home/wavewatch/ww3v607/model/exe/ww3_multi
	MPT Version: HPE MPT 2.17  11/01/17 04:27:42

MPT: --------stack traceback-------
MPT ERROR: Rank 93(g:93) is aborting with error code 3.
	Process ID: 39079, Host: r1i1n6, Program: /data1/ww3desenv/home/wavewatch/ww3v607/model/exe/ww3_multi
	MPT Version: HPE MPT 2.17  11/01/17 04:27:42

MPT: --------stack traceback-------
MPT ERROR: Rank 45(g:45) is aborting with error code 3.
	Process ID: 37919, Host: r1i1n4, Program: /data1/ww3desenv/home/wavewatch/ww3v607/model/exe/ww3_multi
	MPT Version: HPE MPT 2.17  11/01/17 04:27:42

MPT: --------stack traceback-------
MPT ERROR: Rank 66(g:66) is aborting with error code 3.
	Process ID: 39153, Host: r1i1n5, Program: /data1/ww3desenv/home/wavewatch/ww3v607/model/exe/ww3_multi
	MPT Version: HPE MPT 2.17  11/01/17 04:27:42

MPT: --------stack traceback-------
 w3servmd MPI_ABORT, IEXIT=           3
 w3servmd UNIT missing
 w3servmd MSG missing
 w3servmd FILE missing
 w3servmd LINE missing
 w3servmd COMM missing
 w3servmd MPI_ABORT, IEXIT=           3
 w3servmd UNIT missing
 w3servmd MSG missing
 w3servmd FILE missing
 w3servmd LINE missing
 w3servmd COMM missing
MPT ERROR: MPI_COMM_WORLD rank 8 has terminated without calling MPI_Finalize()
	aborting job
MPT: Shepherd process aborted
real 2.29
user 0.00
sys 0.00

 Copiando os arquivos de output e restarts da rodada do WW3/gfs data: 2019082700

 Já existe o diretório outdir 

 Copiando restarts e outputs do WW3/gfs grade glo_gfs data: 2019082700

cp: cannot stat '/data1/ww3desenv/home/mod_ondas/work/restart001.glo_gfs': No such file or directory
cp: cannot stat '/data1/ww3desenv/home/mod_ondas/work/restart002.glo_gfs': No such file or directory
cp: cannot stat '/data1/ww3desenv/home/mod_ondas/work/restart003.glo_gfs': No such file or directory
cp: cannot stat '/data1/ww3desenv/home/mod_ondas/work/restart004.glo_gfs': No such file or directory
cp: cannot stat '/data1/ww3desenv/home/mod_ondas/work/out_grd.glo_gfs': No such file or directory
cp: cannot stat '/data1/ww3desenv/home/mod_ondas/work/log.glo_gfs': No such file or directory

 Copiando restarts e outputs do WW3/gfs grade met5_gfs data: 2019082700

cp: cannot stat '/data1/ww3desenv/home/mod_ondas/work/restart001.met5_gfs': No such file or directory
cp: cannot stat '/data1/ww3desenv/home/mod_ondas/work/restart002.met5_gfs': No such file or directory
cp: cannot stat '/data1/ww3desenv/home/mod_ondas/work/restart003.met5_gfs': No such file or directory
cp: cannot stat '/data1/ww3desenv/home/mod_ondas/work/restart004.met5_gfs': No such file or directory
cp: cannot stat '/data1/ww3desenv/home/mod_ondas/work/out_grd.met5_gfs': No such file or directory
cp: cannot stat '/data1/ww3desenv/home/mod_ondas/work/log.met5_gfs': No such file or directory

 Copiando restarts e outputs do WW3/gfs grade ant5_gfs data: 2019082700

cp: cannot stat '/data1/ww3desenv/home/mod_ondas/work/restart001.ant5_gfs': No such file or directory
cp: cannot stat '/data1/ww3desenv/home/mod_ondas/work/restart002.ant5_gfs': No such file or directory
cp: cannot stat '/data1/ww3desenv/home/mod_ondas/work/restart003.ant5_gfs': No such file or directory
cp: cannot stat '/data1/ww3desenv/home/mod_ondas/work/restart004.ant5_gfs': No such file or directory
cp: cannot stat '/data1/ww3desenv/home/mod_ondas/work/out_grd.ant5_gfs': No such file or directory
cp: cannot stat '/data1/ww3desenv/home/mod_ondas/work/log.ant5_gfs': No such file or directory
cp: cannot stat '/data1/ww3desenv/home/mod_ondas/work/nest.met5_gfs': No such file or directory
cp: cannot stat '/data1/ww3desenv/home/mod_ondas/work/nest.ant5_gfs': No such file or directory
cp: cannot stat '/data1/ww3desenv/home/mod_ondas/work/log.*': No such file or directory
cp: cannot stat '/data1/ww3desenv/home/mod_ondas/work/out_pnt.points': No such file or directory
 --------------------------------------------------------------------------------- 
                   ww3_ounf: saídas binárias do WW3 para NETCDF                    
 --------------------------------------------------------------------------------- 
 
 Linkando mod.def da área:  met5_gfs
 
 
 Executando ww3_ounf área:  met5_gfs  2019082700
 

                  *** WAVEWATCH III Field output postp. ***   
               ===============================================

  Grid name : MET 5m                        


 *** WAVEWATCH III ERROR IN W3IOGO : 
     ERROR IN OPENING FILE
     IOSTAT =   29

 
 Movendo as saídas em netcdf para a pasta Backup 
 
cdo mergetime: Open failed on >met5_gfs20190827.nc<
No such file or directory

ncks: ERROR file /data1/ww3desenv/home/mod_ondas/work/ww3gfs_met5_gfs_2019082700.nc not found. It does not exist on the local filesystem, nor does it match remote filename patterns (e.g., http://foo or foo.bar.edu:file).
ncks: HINT file-not-found errors usually arise from filename typos, incorrect paths, missing files, or capricious gods. Please verify spelling and location of requested file. If the file resides on a High Performance Storage System (HPSS) accessible via the 'hsi' command, then add the --hpss option and re-try command.
 
 Linkando mod.def da área:  ant5_gfs
 
 
 Executando ww3_ounf área:  ant5_gfs  2019082700
 

                  *** WAVEWATCH III Field output postp. ***   
               ===============================================

  Grid name : ANT 5m                        


 *** WAVEWATCH III ERROR IN W3IOGO : 
     ERROR IN OPENING FILE
     IOSTAT =   29

 
 Movendo as saídas em netcdf para a pasta Backup 
 
cdo mergetime: Open failed on >ant5_gfs20190827.nc<
No such file or directory

ncks: ERROR file /data1/ww3desenv/home/mod_ondas/work/ww3gfs_ant5_gfs_2019082700.nc not found. It does not exist on the local filesystem, nor does it match remote filename patterns (e.g., http://foo or foo.bar.edu:file).
ncks: HINT file-not-found errors usually arise from filename typos, incorrect paths, missing files, or capricious gods. Please verify spelling and location of requested file. If the file resides on a High Performance Storage System (HPSS) accessible via the 'hsi' command, then add the --hpss option and re-try command.
mv: cannot stat '/data1/ww3desenv/home/mod_ondas/output/ww3gfs/20190827/out_pnt.t00z.points': No such file or directory
 
 Iniciando a rodada do WW3gfs12 Data e HH: 2019082700
 
 
 Linkando mod.def da área:  glo_gfs12
 

 Linkando e restart da área:  glo_gfs12

 
 Linkando mod.def da área:  met5_gfs12
 

 Linkando e restart da área:  met5_gfs12

 
 Linkando mod.def da área:  ant5_gfs12
 

 Linkando e restart da área:  ant5_gfs12

 
 Linkando os mod.def do vento, points, ice e dados de entrada 
 

 Linkando vento gfs12 20190827 00


 Linkando gelo para a data: 20190826


 Iniciando Execução WW3/gfs12 data: 2019082700

MPT: libxmpi.so 'HPE MPT 2.17  11/01/17 04:28:44'
MPT: libmpi_mt.so  'HPE MPT 2.17  11/01/17 04:27:42'
	MPT Environmental Settings
MPT: MPI_VERBOSE (default: disabled) : enabled
MPT: MPI_IB_RECV_MSGS (default: 512) : 1024
MPT: Using the InfiniBand RC interconnect on fabric 0x0
MPT: Using the InfiniBand UD interconnect on fabric 0x0

                    *** WAVEWATCH III Multi-grid shell ***    
               =================================================

 w3servmd MPI_ABORT, IEXIT=           3
 w3servmd UNIT missing
 w3servmd MSG missing
 w3servmd FILE missing
 w3servmd LINE missing
 w3servmd COMM missing
 w3servmd MPI_ABORT, IEXIT=           3
 w3servmd UNIT missing
 w3servmd MSG missing
 w3servmd FILE missing
 w3servmd LINE missing
 w3servmd COMM missing
 w3servmd MPI_ABORT, IEXIT=           3
 w3servmd UNIT missing
 w3servmd MSG missing
 w3servmd FILE missing
 w3servmd LINE missing
 w3servmd COMM missing
 w3servmd MPI_ABORT, IEXIT=           3
 w3servmd UNIT missing
 w3servmd MSG missing
 w3servmd FILE missing
 w3servmd LINE missing
 w3servmd COMM missing
 w3servmd MPI_ABORT, IEXIT=           3
 w3servmd UNIT missing
 w3servmd MSG missing
 w3servmd FILE missing
 w3servmd LINE missing
 w3servmd COMM missing
 w3servmd MPI_ABORT, IEXIT=           3
 w3servmd UNIT missing
 w3servmd MSG missing
 w3servmd FILE missing
 w3servmd LINE missing
 w3servmd COMM missing
 w3servmd MPI_ABORT, IEXIT=           3
 w3servmd UNIT missing
 w3servmd MSG missing
 w3servmd FILE missing
 w3servmd LINE missing
 w3servmd COMM missing
 w3servmd MPI_ABORT, IEXIT=           3
 w3servmd UNIT missing
 w3servmd MSG missing
 w3servmd FILE missing
 w3servmd LINE missing
 w3servmd COMM missing
 w3servmd MPI_ABORT, IEXIT=           3
 w3servmd UNIT missing
 w3servmd MSG missing
 w3servmd FILE missing
 w3servmd LINE missing
 w3servmd MPI_ABORT, IEXIT=           3
 w3servmd UNIT missing
 w3servmd MSG missing
 w3servmd FILE missing
 w3servmd LINE missing
 w3servmd COMM missing
 w3servmd MPI_ABORT, IEXIT=           3
 w3servmd UNIT missing
 w3servmd MSG missing
 w3servmd FILE missing
 w3servmd LINE missing
 w3servmd COMM missing
 w3servmd MPI_ABORT, IEXIT=           3
 w3servmd UNIT missing
 w3servmd MSG missing
 w3servmd FILE missing
 w3servmd LINE missing
 w3servmd COMM missing
 w3servmd MPI_ABORT, IEXIT=           3
 w3servmd UNIT missing
 w3servmd MSG missing
 w3servmd FILE missing
 w3servmd LINE missing
 w3servmd COMM missing
 w3servmd MPI_ABORT, IEXIT=           3
 w3servmd UNIT missing
 w3servmd MSG missing
 w3servmd FILE missing
 w3servmd LINE missing
 w3servmd COMM missing
MPT ERROR: Rank 4(g:4) is aborting with error code 3.
	Process ID: 19491, Host: r1i1n2, Program: /data1/ww3desenv/home/wavewatch/ww3v607/model/exe/ww3_multi
	MPT Version: HPE MPT 2.17  11/01/17 04:27:42

MPT: --------stack traceback-------
 w3servmd MPI_ABORT, IEXIT=           3
 w3servmd UNIT missing
 w3servmd MSG missing
 w3servmd FILE missing
 w3servmd LINE missing
 w3servmd COMM missing
MPT ERROR: Rank 129(g:129) is aborting with error code 3.
	Process ID: 39080, Host: r1i1n7, Program: /data1/ww3desenv/home/wavewatch/ww3v607/model/exe/ww3_multi
	MPT Version: HPE MPT 2.17  11/01/17 04:27:42

MPT: --------stack traceback-------
 w3servmd MPI_ABORT, IEXIT=           3
 w3servmd UNIT missing
 w3servmd MSG missing
 w3servmd FILE missing
 w3servmd LINE missing
 w3servmd COMM missing
MPT ERROR: Rank 86(g:86) is aborting with error code 3.
	Process ID: 39212, Host: r1i1n5, Program: /data1/ww3desenv/home/wavewatch/ww3v607/model/exe/ww3_multi
	MPT Version: HPE MPT 2.17  11/01/17 04:27:42

MPT: --------stack traceback-------
MPT ERROR: Rank 58(g:58) is aborting with error code 3.
	Process ID: 37970, Host: r1i1n4, Program: /data1/ww3desenv/home/wavewatch/ww3v607/model/exe/ww3_multi
	MPT Version: HPE MPT 2.17  11/01/17 04:27:42

MPT: --------stack traceback-------
 w3servmd COMM missing
 w3servmd MPI_ABORT, IEXIT=           3
 w3servmd UNIT missing
 w3servmd MSG missing
 w3servmd FILE missing
 w3servmd LINE missing
 w3servmd COMM missing
 w3servmd MPI_ABORT, IEXIT=           3
 w3servmd UNIT missing
 w3servmd MSG missing
 w3servmd FILE missing
 w3servmd LINE missing
 w3servmd COMM missing
 w3servmd MPI_ABORT, IEXIT=           3
 w3servmd UNIT missing
 w3servmd MSG missing
 w3servmd FILE missing
 w3servmd LINE missing
 w3servmd COMM missing
 w3servmd MPI_ABORT, IEXIT=           3
 w3servmd UNIT missing
 w3servmd MSG missing
 w3servmd FILE missing
 w3servmd LINE missing
 w3servmd COMM missing
 w3servmd MPI_ABORT, IEXIT=           3
 w3servmd UNIT missing
 w3servmd MSG missing
 w3servmd FILE missing
 w3servmd LINE missing
 w3servmd COMM missing
 w3servmd MPI_ABORT, IEXIT=           3
 w3servmd UNIT missing
 w3servmd MSG missing
 w3servmd FILE missing
 w3servmd LINE missing
 w3servmd COMM missing
MPT ERROR: Rank 93(g:93) is aborting with error code 3.
	Process ID: 39118, Host: r1i1n6, Program: /data1/ww3desenv/home/wavewatch/ww3v607/model/exe/ww3_multi
	MPT Version: HPE MPT 2.17  11/01/17 04:27:42

MPT: --------stack traceback-------
 w3servmd MPI_ABORT, IEXIT=           3
 w3servmd UNIT missing
 w3servmd MSG missing
 w3servmd FILE missing
 w3servmd LINE missing
 w3servmd COMM missing
MPT ERROR: Rank 145(g:145) is aborting with error code 3.
	Process ID: 36777, Host: r1i1n8, Program: /data1/ww3desenv/home/wavewatch/ww3v607/model/exe/ww3_multi
	MPT Version: HPE MPT 2.17  11/01/17 04:27:42

MPT: --------stack traceback-------
 w3servmd MPI_ABORT, IEXIT=           3
 w3servmd UNIT missing
 w3servmd MSG missing
 w3servmd FILE missing
 w3servmd LINE missing
 w3servmd COMM missing
 w3servmd MPI_ABORT, IEXIT=           3
 w3servmd UNIT missing
 w3servmd MSG missing
 w3servmd FILE missing
 w3servmd LINE missing
 w3servmd COMM missing
 w3servmd MPI_ABORT, IEXIT=           3
 w3servmd UNIT missing
 w3servmd MSG missing
 w3servmd FILE missing
 w3servmd LINE missing
 w3servmd COMM missing
 w3servmd MPI_ABORT, IEXIT=           3
 w3servmd UNIT missing
 w3servmd MSG missing
 w3servmd FILE missing
 w3servmd LINE missing
 w3servmd MPI_ABORT, IEXIT=           3
 w3servmd UNIT missing
 w3servmd MSG missing
 w3servmd FILE missing
 w3servmd LINE missing
 w3servmd COMM missing
 w3servmd MPI_ABORT, IEXIT=           3
 w3servmd UNIT missing
 w3servmd MSG missing
 w3servmd FILE missing
 w3servmd LINE missing
 w3servmd COMM missing
 w3servmd MPI_ABORT, IEXIT=           3
 w3servmd UNIT missing
 w3servmd MSG missing
 w3servmd FILE missing
 w3servmd LINE missing
 w3servmd COMM missing
 w3servmd MPI_ABORT, IEXIT=           3
 w3servmd UNIT missing
 w3servmd MSG missing
 w3servmd FILE missing
 w3servmd LINE missing
 w3servmd COMM missing
 w3servmd MPI_ABORT, IEXIT=           3
 w3servmd UNIT missing
 w3servmd MSG missing
 w3servmd FILE missing
 w3servmd LINE missing
 w3servmd COMM missing
 w3servmd COMM missing
 w3servmd MPI_ABORT, IEXIT=           3
 w3servmd UNIT missing
 w3servmd MSG missing
 w3servmd FILE missing
 w3servmd LINE missing
 w3servmd COMM missing
 w3servmd MPI_ABORT, IEXIT=           3
 w3servmd UNIT missing
 w3servmd MSG missing
 w3servmd FILE missing
 w3servmd LINE missing
 w3servmd COMM missing
 w3servmd MPI_ABORT, IEXIT=           3
 w3servmd UNIT missing
 w3servmd MSG missing
 w3servmd FILE missing
 w3servmd LINE missing
 w3servmd COMM missing
 w3servmd MPI_ABORT, IEXIT=           3
 w3servmd UNIT missing
 w3servmd MSG missing
 w3servmd FILE missing
 w3servmd LINE missing
 w3servmd COMM missing
 w3servmd MPI_ABORT, IEXIT=           3
 w3servmd UNIT missing
 w3servmd MSG missing
 w3servmd FILE missing
 w3servmd LINE missing
 w3servmd COMM missing
 w3servmd MPI_ABORT, IEXIT=           3
 w3servmd UNIT missing
 w3servmd MSG missing
 w3servmd FILE missing
 w3servmd LINE missing
 w3servmd COMM missing
 w3servmd MPI_ABORT, IEXIT=           3
 w3servmd UNIT missing
 w3servmd MSG missing
 w3servmd FILE missing
 w3servmd LINE missing
 w3servmd COMM missing
 w3servmd MPI_ABORT, IEXIT=           3
 w3servmd UNIT missing
 w3servmd MSG missing
 w3servmd FILE missing
 w3servmd LINE missing
 w3servmd COMM missing
 w3servmd MPI_ABORT, IEXIT=           3
 w3servmd UNIT missing
 w3servmd MSG missing
 w3servmd FILE missing
 w3servmd LINE missing
 w3servmd COMM missing
 w3servmd MPI_ABORT, IEXIT=           3
 w3servmd UNIT missing
 w3servmd MSG missing
 w3servmd FILE missing
 w3servmd LINE missing
 w3servmd COMM missing
 w3servmd MPI_ABORT, IEXIT=           3
 w3servmd UNIT missing
 w3servmd MSG missing
 w3servmd FILE missing
 w3servmd LINE missing
 w3servmd COMM missing
 w3servmd MPI_ABORT, IEXIT=           3
 w3servmd UNIT missing
 w3servmd MSG missing
 w3servmd FILE missing
 w3servmd LINE missing
 w3servmd COMM missing
 w3servmd MPI_ABORT, IEXIT=           3
 w3servmd UNIT missing
 w3servmd MSG missing
 w3servmd FILE missing
 w3servmd LINE missing
 w3servmd COMM missing
 w3servmd MPI_ABORT, IEXIT=           3
 w3servmd UNIT missing
 w3servmd MSG missing
 w3servmd FILE missing
 w3servmd LINE missing
 w3servmd COMM missing
 w3servmd MPI_ABORT, IEXIT=           3
 w3servmd UNIT missing
 w3servmd MSG missing
 w3servmd FILE missing
 w3servmd LINE missing
 w3servmd COMM missing
 w3servmd MPI_ABORT, IEXIT=           3
 w3servmd UNIT missing
 w3servmd MSG missing
 w3servmd FILE missing
 w3servmd LINE missing
 w3servmd COMM missing
 w3servmd MPI_ABORT, IEXIT=           3
 w3servmd UNIT missing
 w3servmd MSG missing
 w3servmd FILE missing
 w3servmd LINE missing
 w3servmd COMM missing
 w3servmd MPI_ABORT, IEXIT=           3
 w3servmd UNIT missing
 w3servmd MSG missing
 w3servmd FILE missing
 w3servmd LINE missing
 w3servmd COMM missing
 w3servmd MPI_ABORT, IEXIT=           3
 w3servmd UNIT missing
 w3servmd MSG missing
 w3servmd FILE missing
 w3servmd LINE missing
 w3servmd COMM missing
 w3servmd MPI_ABORT, IEXIT=           3
 w3servmd UNIT missing
 w3servmd MSG missing
 w3servmd FILE missing
 w3servmd LINE missing
 w3servmd COMM missing
 w3servmd MPI_ABORT, IEXIT=           3
 w3servmd UNIT missing
 w3servmd MSG missing
 w3servmd FILE missing
 w3servmd LINE missing
 w3servmd COMM missing
 w3servmd MPI_ABORT, IEXIT=           3
 w3servmd UNIT missing
 w3servmd MSG missing
 w3servmd FILE missing
 w3servmd LINE missing
 w3servmd COMM missing
 w3servmd MPI_ABORT, IEXIT=           3
 w3servmd UNIT missing
 w3servmd MSG missing
 w3servmd FILE missing
 w3servmd LINE missing
 w3servmd COMM missing
 w3servmd MPI_ABORT, IEXIT=           3
 w3servmd UNIT missing
 w3servmd MSG missing
 w3servmd FILE missing
 w3servmd LINE missing
 w3servmd COMM missing
 w3servmd MPI_ABORT, IEXIT=           3
 w3servmd UNIT missing
 w3servmd MSG missing
 w3servmd FILE missing
 w3servmd LINE missing
 w3servmd COMM missing
 w3servmd MPI_ABORT, IEXIT=           3
 w3servmd UNIT missing
 w3servmd MSG missing
 w3servmd FILE missing
 w3servmd LINE missing
 w3servmd COMM missing
 w3servmd MPI_ABORT, IEXIT=           3
 w3servmd UNIT missing
 w3servmd MSG missing
 w3servmd FILE missing
 w3servmd LINE missing
 w3servmd COMM missing
 w3servmd MPI_ABORT, IEXIT=           3
 w3servmd UNIT missing
 w3servmd MSG missing
 w3servmd FILE missing
 w3servmd LINE missing
 w3servmd COMM missing
 w3servmd MPI_ABORT, IEXIT=           3
 w3servmd UNIT missing
 w3servmd MSG missing
 w3servmd FILE missing
 w3servmd LINE missing
 w3servmd COMM missing
 w3servmd MPI_ABORT, IEXIT=           3
 w3servmd UNIT missing
 w3servmd MSG missing
 w3servmd FILE missing
 w3servmd LINE missing
 w3servmd COMM missing
 w3servmd MPI_ABORT, IEXIT=           3
 w3servmd UNIT missing
 w3servmd MSG missing
 w3servmd FILE missing
 w3servmd LINE missing
 w3servmd COMM missing
 w3servmd MPI_ABORT, IEXIT=           3
 w3servmd UNIT missing
 w3servmd MSG missing
 w3servmd FILE missing
 w3servmd LINE missing
 w3servmd COMM missing
 w3servmd MPI_ABORT, IEXIT=           3
 w3servmd UNIT missing
 w3servmd MPI_ABORT, IEXIT=           3
 w3servmd UNIT missing
 w3servmd MSG missing
 w3servmd FILE missing
 w3servmd LINE missing
 w3servmd COMM missing
 w3servmd MPI_ABORT, IEXIT=           3
 w3servmd UNIT missing
 w3servmd MSG missing
 w3servmd FILE missing
 w3servmd LINE missing
 w3servmd COMM missing
 w3servmd MPI_ABORT, IEXIT=           3
 w3servmd UNIT missing
 w3servmd MSG missing
 w3servmd FILE missing
 w3servmd LINE missing
 w3servmd COMM missing
 w3servmd MPI_ABORT, IEXIT=           3
 w3servmd UNIT missing
 w3servmd MSG missing
 w3servmd FILE missing
 w3servmd LINE missing
 w3servmd COMM missing
 w3servmd MPI_ABORT, IEXIT=           3
 w3servmd UNIT missing
 w3servmd MSG missing
 w3servmd FILE missing
 w3servmd LINE missing
 w3servmd COMM missing
 w3servmd MSG missing
 w3servmd FILE missing
 w3servmd LINE missing
 w3servmd COMM missing
 w3servmd MPI_ABORT, IEXIT=           3
 w3servmd UNIT missing
 w3servmd MSG missing
 w3servmd FILE missing
 w3servmd LINE missing
 w3servmd COMM missing
 ========== STARTING MWW3 INITIALIZATION (WMINIT) =============================

  Opening input file ww3_multi.inp (unit number  8)
 w3servmd MPI_ABORT, IEXIT=           3
 w3servmd UNIT missing
 w3servmd MSG missing
 w3servmd FILE missing
 w3servmd LINE missing
 w3servmd COMM missing
 w3servmd MPI_ABORT, IEXIT=           3
 w3servmd UNIT missing
 w3servmd MSG missing
 w3servmd FILE missing
 w3servmd LINE missing
 w3servmd COMM missing
 w3servmd MPI_ABORT, IEXIT=           3
 w3servmd UNIT missing
 w3servmd MSG missing
 w3servmd FILE missing
 w3servmd LINE missing
 w3servmd COMM missing
 w3servmd MPI_ABORT, IEXIT=           3
 w3servmd UNIT missing
 w3servmd MSG missing
 w3servmd FILE missing
 w3servmd LINE missing
 w3servmd COMM missing
 w3servmd MPI_ABORT, IEXIT=           3
 w3servmd UNIT missing
 w3servmd MSG missing
 w3servmd FILE missing
 w3servmd LINE missing
 w3servmd COMM missing
 w3servmd MPI_ABORT, IEXIT=           3
 w3servmd UNIT missing
 w3servmd MSG missing
 w3servmd FILE missing
 w3servmd LINE missing
 w3servmd COMM missing
 w3servmd MPI_ABORT, IEXIT=           3
 w3servmd UNIT missing
 w3servmd MSG missing
 w3servmd FILE missing
 w3servmd LINE missing
 w3servmd COMM missing
 w3servmd MPI_ABORT, IEXIT=           3
 w3servmd UNIT missing
 w3servmd MSG missing
 w3servmd FILE missing
 w3servmd LINE missing
 w3servmd COMM missing
 w3servmd MPI_ABORT, IEXIT=           3
 w3servmd UNIT missing
 w3servmd MSG missing
 w3servmd FILE missing
 w3servmd LINE missing
 w3servmd COMM missing
 w3servmd MPI_ABORT, IEXIT=           3
 w3servmd UNIT missing
 w3servmd MSG missing
 w3servmd FILE missing
 w3servmd LINE missing
 w3servmd COMM missing
 w3servmd MPI_ABORT, IEXIT=           3
 w3servmd UNIT missing
 w3servmd MSG missing
 w3servmd FILE missing
 w3servmd LINE missing
 w3servmd COMM missing
 w3servmd MPI_ABORT, IEXIT=           3
 w3servmd UNIT missing
 w3servmd MSG missing
 w3servmd FILE missing
 w3servmd LINE missing
 w3servmd COMM missing
 w3servmd MPI_ABORT, IEXIT=           3
 w3servmd UNIT missing
 w3servmd MSG missing
 w3servmd FILE missing
 w3servmd LINE missing
 w3servmd COMM missing
 w3servmd MPI_ABORT, IEXIT=           3
 w3servmd UNIT missing
 w3servmd MSG missing
 w3servmd FILE missing
 w3servmd LINE missing
 w3servmd COMM missing
 w3servmd MPI_ABORT, IEXIT=           3
 w3servmd UNIT missing
 w3servmd MSG missing
 w3servmd FILE missing
 w3servmd LINE missing
 w3servmd COMM missing
 w3servmd MPI_ABORT, IEXIT=           3
 w3servmd UNIT missing
 w3servmd MSG missing
 w3servmd FILE missing
 w3servmd LINE missing
 w3servmd COMM missing
 w3servmd MPI_ABORT, IEXIT=           3
 w3servmd UNIT missing
 w3servmd MSG missing
 w3servmd FILE missing
 w3servmd LINE missing
 w3servmd COMM missing
 w3servmd MPI_ABORT, IEXIT=           3
 w3servmd UNIT missing
 w3servmd MSG missing
 w3servmd FILE missing
 w3servmd LINE missing
 w3servmd COMM missing
 w3servmd MPI_ABORT, IEXIT=           3
 w3servmd UNIT missing
 w3servmd MSG missing
 w3servmd FILE missing
 w3servmd LINE missing
 w3servmd COMM missing
 w3servmd MPI_ABORT, IEXIT=           3
 w3servmd UNIT missing
 w3servmd MSG missing
 w3servmd FILE missing
 w3servmd LINE missing
 w3servmd COMM missing
 w3servmd MPI_ABORT, IEXIT=           3
 w3servmd UNIT missing
 w3servmd MSG missing
 w3servmd FILE missing
 w3servmd LINE missing
 w3servmd COMM missing
 w3servmd MPI_ABORT, IEXIT=           3
 w3servmd UNIT missing
 w3servmd MSG missing
 w3servmd FILE missing
 w3servmd LINE missing
 w3servmd COMM missing
 w3servmd MPI_ABORT, IEXIT=           3
 w3servmd UNIT missing
 w3servmd MSG missing
 w3servmd FILE missing
 w3servmd LINE missing
 w3servmd COMM missing
 w3servmd MPI_ABORT, IEXIT=           3
 w3servmd UNIT missing
 w3servmd MSG missing
 w3servmd FILE missing
 w3servmd LINE missing
 w3servmd COMM missing
 w3servmd MPI_ABORT, IEXIT=           3
 w3servmd UNIT missing
 w3servmd MSG missing
 w3servmd FILE missing
 w3servmd LINE missing
 w3servmd COMM missing
 w3servmd MPI_ABORT, IEXIT=           3
 w3servmd UNIT missing
 w3servmd MSG missing
 w3servmd FILE missing
 w3servmd LINE missing
 w3servmd COMM missing
 w3servmd MPI_ABORT, IEXIT=           3
 w3servmd UNIT missing
 w3servmd MSG missing
 w3servmd FILE missing
 w3servmd LINE missing
 w3servmd COMM missing
 w3servmd MPI_ABORT, IEXIT=           3
 w3servmd UNIT missing
 w3servmd MSG missing
 w3servmd FILE missing
 w3servmd LINE missing
 w3servmd COMM missing
 w3servmd MPI_ABORT, IEXIT=           3
 w3servmd UNIT missing
 w3servmd MSG missing
 w3servmd FILE missing
 w3servmd LINE missing
 w3servmd COMM missing
 w3servmd MPI_ABORT, IEXIT=           3
 w3servmd UNIT missing
 w3servmd MSG missing
 w3servmd FILE missing
 w3servmd LINE missing
 w3servmd COMM missing
 w3servmd MPI_ABORT, IEXIT=           3
 w3servmd UNIT missing
 w3servmd MSG missing
 w3servmd FILE missing
 w3servmd LINE missing
 w3servmd COMM missing
 w3servmd MPI_ABORT, IEXIT=           3
 w3servmd UNIT missing
 w3servmd MSG missing
 w3servmd FILE missing
 w3servmd LINE missing
 w3servmd COMM missing
 w3servmd MPI_ABORT, IEXIT=           3
 w3servmd UNIT missing
 w3servmd MSG missing
 w3servmd FILE missing
 w3servmd LINE missing
 w3servmd COMM missing
 w3servmd MPI_ABORT, IEXIT=           3
 w3servmd UNIT missing
 w3servmd MSG missing
 w3servmd FILE missing
 w3servmd LINE missing
 w3servmd COMM missing
 w3servmd MPI_ABORT, IEXIT=           3
 w3servmd UNIT missing
 w3servmd MSG missing
 w3servmd FILE missing
 w3servmd LINE missing
 w3servmd COMM missing
 w3servmd MPI_ABORT, IEXIT=           3
 w3servmd UNIT missing
 w3servmd MSG missing
 w3servmd FILE missing
 w3servmd LINE missing
 w3servmd COMM missing
 w3servmd MPI_ABORT, IEXIT=           3
 w3servmd UNIT missing
 w3servmd MSG missing
 w3servmd FILE missing
 w3servmd LINE missing
 w3servmd COMM missing
 w3servmd MPI_ABORT, IEXIT=           3
 w3servmd UNIT missing
 w3servmd MSG missing
 w3servmd FILE missing
 w3servmd LINE missing
 w3servmd COMM missing
 w3servmd MPI_ABORT, IEXIT=           3
 w3servmd UNIT missing
 w3servmd MSG missing
 w3servmd FILE missing
 w3servmd LINE missing
 w3servmd COMM missing
 w3servmd MPI_ABORT, IEXIT=           3
 w3servmd UNIT missing
 w3servmd MSG missing
 w3servmd FILE missing
 w3servmd LINE missing
 w3servmd COMM missing
 w3servmd MPI_ABORT, IEXIT=           3
 w3servmd UNIT missing
 w3servmd MSG missing
 w3servmd FILE missing
 w3servmd LINE missing
 w3servmd COMM missing
 w3servmd MPI_ABORT, IEXIT=           3
 w3servmd UNIT missing
 w3servmd MSG missing
 w3servmd FILE missing
 w3servmd LINE missing
 w3servmd COMM missing
 w3servmd MPI_ABORT, IEXIT=           3
 w3servmd UNIT missing
 w3servmd MSG missing
 w3servmd FILE missing
 w3servmd LINE missing
 w3servmd COMM missing
 w3servmd MPI_ABORT, IEXIT=           3
 w3servmd UNIT missing
 w3servmd MSG missing
 w3servmd FILE missing
 w3servmd LINE missing
 w3servmd COMM missing
 w3servmd MPI_ABORT, IEXIT=           3
 w3servmd UNIT missing
 w3servmd MSG missing
 w3servmd FILE missing
 w3servmd LINE missing
 w3servmd COMM missing
 w3servmd MPI_ABORT, IEXIT=           3
 w3servmd UNIT missing
 w3servmd MSG missing
 w3servmd FILE missing
 w3servmd LINE missing
 w3servmd COMM missing
 w3servmd MPI_ABORT, IEXIT=           3
 w3servmd UNIT missing
 w3servmd MSG missing
 w3servmd FILE missing
 w3servmd LINE missing
 w3servmd COMM missing
 w3servmd MPI_ABORT, IEXIT=           3
 w3servmd UNIT missing
 w3servmd MSG missing
 w3servmd FILE missing
 w3servmd LINE missing
 w3servmd COMM missing
 w3servmd MPI_ABORT, IEXIT=           3
 w3servmd UNIT missing
 w3servmd MSG missing
 w3servmd FILE missing
 w3servmd LINE missing
 w3servmd COMM missing
 w3servmd MPI_ABORT, IEXIT=           3
 w3servmd UNIT missing
 w3servmd MSG missing
 w3servmd FILE missing
 w3servmd LINE missing
 w3servmd COMM missing
 w3servmd MPI_ABORT, IEXIT=           3
 w3servmd UNIT missing
 w3servmd MSG missing
 w3servmd FILE missing
 w3servmd LINE missing
 w3servmd COMM missing
 w3servmd MPI_ABORT, IEXIT=           3
 w3servmd UNIT missing
 w3servmd MSG missing
 w3servmd FILE missing
 w3servmd LINE missing
 w3servmd COMM missing
 w3servmd MPI_ABORT, IEXIT=           3
 w3servmd UNIT missing
 w3servmd MSG missing
 w3servmd FILE missing
 w3servmd LINE missing
 w3servmd COMM missing
 w3servmd MPI_ABORT, IEXIT=           3
 w3servmd UNIT missing
 w3servmd MSG missing
 w3servmd FILE missing
 w3servmd LINE missing
 w3servmd COMM missing
 w3servmd MPI_ABORT, IEXIT=           3
 w3servmd UNIT missing
 w3servmd MSG missing
 w3servmd FILE missing
 w3servmd LINE missing
 w3servmd COMM missing
 w3servmd MPI_ABORT, IEXIT=           3
 w3servmd UNIT missing
 w3servmd MSG missing
 w3servmd FILE missing
 w3servmd LINE missing
 w3servmd COMM missing
 w3servmd MPI_ABORT, IEXIT=           3
 w3servmd UNIT missing
 w3servmd MSG missing
 w3servmd FILE missing
 w3servmd LINE missing
 w3servmd COMM missing
 w3servmd MPI_ABORT, IEXIT=           3
 w3servmd UNIT missing
 w3servmd MSG missing
 w3servmd FILE missing
 w3servmd LINE missing
 w3servmd COMM missing
  Opening output file log.mww3 (unit number  9)

  Comment character : '$'
 w3servmd MPI_ABORT, IEXIT=           3
 w3servmd UNIT missing
 w3servmd MSG missing
 w3servmd FILE missing
 w3servmd LINE missing
 w3servmd COMM missing
 w3servmd MPI_ABORT, IEXIT=           3
 w3servmd UNIT missing
 w3servmd MSG missing
 w3servmd FILE missing
 w3servmd LINE missing
 w3servmd COMM missing

 *** WAVEWATCH III ERROR IN NEXTLN : 
     ERROR ON BACKSPACE
     IOSTAT =  264
     IOMSG = operation requires file to be on disk or tape, unit 8, file /data1/ww3desenv/home/mod_ondas/work/./ww3_multi.inp

 w3servmd MPI_ABORT, IEXIT=           3
 w3servmd UNIT missing
 w3servmd MSG missing
 w3servmd FILE missing
 w3servmd LINE missing
 w3servmd COMM missing
MPT ERROR: MPI_COMM_WORLD rank 109 has terminated without calling MPI_Finalize()
	aborting job
MPT: Shepherd process aborted
real 1.78
user 0.00
sys 0.00

 Copiando os arquivos de output e restarts da rodada do WW3/gfs12 data: 2019082700


 Copiando restarts e outputs do WW3/gfs12 grade glo_gfs12 data: 2019082700

cp: cannot stat '/data1/ww3desenv/home/mod_ondas/work/restart001.glo_gfs12': No such file or directory
cp: cannot stat '/data1/ww3desenv/home/mod_ondas/work/restart002.glo_gfs12': No such file or directory
cp: cannot stat '/data1/ww3desenv/home/mod_ondas/work/restart003.glo_gfs12': No such file or directory
cp: cannot stat '/data1/ww3desenv/home/mod_ondas/work/restart004.glo_gfs12': No such file or directory
cp: cannot stat '/data1/ww3desenv/home/mod_ondas/work/out_grd.glo_gfs12': No such file or directory
cp: cannot stat '/data1/ww3desenv/home/mod_ondas/work/log.glo_gfs12': No such file or directory

 Copiando restarts e outputs do WW3/gfs12 grade met5_gfs12 data: 2019082700

cp: cannot stat '/data1/ww3desenv/home/mod_ondas/work/restart001.met5_gfs12': No such file or directory
cp: cannot stat '/data1/ww3desenv/home/mod_ondas/work/restart002.met5_gfs12': No such file or directory
cp: cannot stat '/data1/ww3desenv/home/mod_ondas/work/restart003.met5_gfs12': No such file or directory
cp: cannot stat '/data1/ww3desenv/home/mod_ondas/work/restart004.met5_gfs12': No such file or directory
cp: cannot stat '/data1/ww3desenv/home/mod_ondas/work/out_grd.met5_gfs12': No such file or directory
cp: cannot stat '/data1/ww3desenv/home/mod_ondas/work/log.met5_gfs12': No such file or directory

 Copiando restarts e outputs do WW3/gfs12 grade ant5_gfs12 data: 2019082700

cp: cannot stat '/data1/ww3desenv/home/mod_ondas/work/restart001.ant5_gfs12': No such file or directory
cp: cannot stat '/data1/ww3desenv/home/mod_ondas/work/restart002.ant5_gfs12': No such file or directory
cp: cannot stat '/data1/ww3desenv/home/mod_ondas/work/restart003.ant5_gfs12': No such file or directory
cp: cannot stat '/data1/ww3desenv/home/mod_ondas/work/restart004.ant5_gfs12': No such file or directory
cp: cannot stat '/data1/ww3desenv/home/mod_ondas/work/out_grd.ant5_gfs12': No such file or directory
cp: cannot stat '/data1/ww3desenv/home/mod_ondas/work/log.ant5_gfs12': No such file or directory
cp: cannot stat '/data1/ww3desenv/home/mod_ondas/work/nest.met5_gfs12': No such file or directory
cp: cannot stat '/data1/ww3desenv/home/mod_ondas/work/nest.ant5_gfs12': No such file or directory
cp: cannot stat '/data1/ww3desenv/home/mod_ondas/work/log.*': No such file or directory
cp: cannot stat '/data1/ww3desenv/home/mod_ondas/work/out_pnt.points': No such file or directory
 --------------------------------------------------------------------------------- 
                   ww3_ounf: saídas binárias do WW3 para NETCDF                    
 --------------------------------------------------------------------------------- 
 
 Linkando mod.def da área:  met5_gfs12
 
 
 Executando ww3_ounf área:  met5_gfs12  2019082700
 

                  *** WAVEWATCH III Field output postp. ***   
               ===============================================

  Grid name : MET 5m                        


 *** WAVEWATCH III ERROR IN W3IOGO : 
     ERROR IN OPENING FILE
     IOSTAT =   29

 
 Movendo as saídas em netcdf para a pasta Backup 
 
cdo mergetime: Open failed on >met5_gfs1220190827.nc<
No such file or directory

ncks: ERROR file /data1/ww3desenv/home/mod_ondas/work/ww3gfs12_met5_gfs12_2019082700.nc not found. It does not exist on the local filesystem, nor does it match remote filename patterns (e.g., http://foo or foo.bar.edu:file).
ncks: HINT file-not-found errors usually arise from filename typos, incorrect paths, missing files, or capricious gods. Please verify spelling and location of requested file. If the file resides on a High Performance Storage System (HPSS) accessible via the 'hsi' command, then add the --hpss option and re-try command.
 
 Linkando mod.def da área:  ant5_gfs12
 
 
 Executando ww3_ounf área:  ant5_gfs12  2019082700
 

                  *** WAVEWATCH III Field output postp. ***   
               ===============================================

  Grid name : ANT 5m                        


 *** WAVEWATCH III ERROR IN W3IOGO : 
     ERROR IN OPENING FILE
     IOSTAT =   29

 
 Movendo as saídas em netcdf para a pasta Backup 
 
cdo mergetime: Open failed on >ant5_gfs1220190827.nc<
No such file or directory

ncks: ERROR file /data1/ww3desenv/home/mod_ondas/work/ww3gfs12_ant5_gfs12_2019082700.nc not found. It does not exist on the local filesystem, nor does it match remote filename patterns (e.g., http://foo or foo.bar.edu:file).
ncks: HINT file-not-found errors usually arise from filename typos, incorrect paths, missing files, or capricious gods. Please verify spelling and location of requested file. If the file resides on a High Performance Storage System (HPSS) accessible via the 'hsi' command, then add the --hpss option and re-try command.
mv: cannot stat '/data1/ww3desenv/home/mod_ondas/output/ww3gfs12/20190827/out_pnt.t00z.points': No such file or directory
 
 Iniciando a rodada do WW3icon Data e HH: 2019082700
 
 
 Linkando mod.def da área:  glo_icon
 

 Linkando e restart da área:  glo_icon

 
 Linkando mod.def da área:  met5_icon
 

 Linkando e restart da área:  met5_icon

 
 Linkando mod.def da área:  ant5_icon
 

 Linkando e restart da área:  ant5_icon

 
 Linkando os mod.def do vento, points, ice e dados de entrada 
 

 Linkando vento icon 20190827 00


 Linkando gelo para a data: 20190826


 Iniciando Execução WW3/icon data: 2019082700

MPT: libxmpi.so 'HPE MPT 2.17  11/01/17 04:28:44'
MPT: libmpi_mt.so  'HPE MPT 2.17  11/01/17 04:27:42'
	MPT Environmental Settings
MPT: MPI_VERBOSE (default: disabled) : enabled
MPT: MPI_IB_RECV_MSGS (default: 512) : 1024
MPT: Using the InfiniBand RC interconnect on fabric 0x0
MPT: Using the InfiniBand UD interconnect on fabric 0x0

                    *** WAVEWATCH III Multi-grid shell ***    
               =================================================

 w3servmd MPI_ABORT, IEXIT=           3
 w3servmd UNIT missing
 w3servmd MSG missing
 w3servmd FILE missing
 w3servmd LINE missing
 w3servmd COMM missing
 w3servmd MPI_ABORT, IEXIT=           3
 w3servmd UNIT missing
 w3servmd MSG missing
 w3servmd FILE missing
 w3servmd LINE missing
 w3servmd COMM missing
 w3servmd MPI_ABORT, IEXIT=           3
 w3servmd UNIT missing
 w3servmd MSG missing
 w3servmd FILE missing
 w3servmd LINE missing
 w3servmd COMM missing
MPT ERROR: Rank 7(g:7) is aborting with error code 3.
	Process ID: 19532, Host: r1i1n2, Program: /data1/ww3desenv/home/wavewatch/ww3v607/model/exe/ww3_multi
	MPT Version: HPE MPT 2.17  11/01/17 04:27:42

MPT: --------stack traceback-------
 w3servmd MPI_ABORT, IEXIT=           3
 w3servmd UNIT missing
 w3servmd MSG missing
 w3servmd FILE missing
 w3servmd LINE missing
 w3servmd COMM missing
 w3servmd MPI_ABORT, IEXIT=           3
 w3servmd UNIT missing
 w3servmd MSG missing
 w3servmd FILE missing
 w3servmd LINE missing
 w3servmd COMM missing
 w3servmd MPI_ABORT, IEXIT=           3
 w3servmd UNIT missing
 w3servmd MSG missing
 w3servmd FILE missing
 w3servmd LINE missing
 w3servmd COMM missing
 w3servmd MPI_ABORT, IEXIT=           3
 w3servmd UNIT missing
 w3servmd MSG missing
 w3servmd FILE missing
 w3servmd LINE missing
 w3servmd COMM missing
 w3servmd MPI_ABORT, IEXIT=           3
 w3servmd UNIT missing
 w3servmd MSG missing
 w3servmd FILE missing
 w3servmd LINE missing
 w3servmd COMM missing
 w3servmd MPI_ABORT, IEXIT=           3
 w3servmd UNIT missing
 w3servmd MSG missing
 w3servmd FILE missing
 w3servmd LINE missing
 w3servmd COMM missing
 w3servmd MPI_ABORT, IEXIT=           3
 w3servmd UNIT missing
 w3servmd MSG missing
 w3servmd FILE missing
 w3servmd LINE missing
 w3servmd COMM missing
 w3servmd MPI_ABORT, IEXIT=           3
 w3servmd UNIT missing
 w3servmd MSG missing
 w3servmd FILE missing
 w3servmd LINE missing
 w3servmd COMM missing
 w3servmd MPI_ABORT, IEXIT=           3
 w3servmd UNIT missing
 w3servmd MSG missing
 w3servmd FILE missing
 w3servmd LINE missing
 w3servmd COMM missing
MPT ERROR: Rank 79(g:79) is aborting with error code 3.
	Process ID: 39244, Host: r1i1n5, Program: /data1/ww3desenv/home/wavewatch/ww3v607/model/exe/ww3_multi
	MPT Version: HPE MPT 2.17  11/01/17 04:27:42

MPT: --------stack traceback-------
 w3servmd MPI_ABORT, IEXIT=           3
 w3servmd UNIT missing
 w3servmd MSG missing
 w3servmd FILE missing
 w3servmd LINE missing
 w3servmd COMM missing
 w3servmd MPI_ABORT, IEXIT=           3
 w3servmd UNIT missing
 w3servmd MSG missing
 w3servmd FILE missing
 w3servmd LINE missing
 w3servmd COMM missing
 w3servmd MPI_ABORT, IEXIT=           3
 w3servmd UNIT missing
 w3servmd MSG missing
 w3servmd FILE missing
 w3servmd LINE missing
 w3servmd COMM missing
 w3servmd MPI_ABORT, IEXIT=           3
 w3servmd UNIT missing
 w3servmd MSG missing
 w3servmd FILE missing
 w3servmd LINE missing
 w3servmd COMM missing
 w3servmd MPI_ABORT, IEXIT=           3
 w3servmd UNIT missing
 w3servmd MSG missing
 w3servmd FILE missing
 w3servmd LINE missing
 w3servmd COMM missing
 w3servmd MPI_ABORT, IEXIT=           3
 w3servmd UNIT missing
 w3servmd MSG missing
 w3servmd FILE missing
 w3servmd LINE missing
 w3servmd COMM missing
MPT ERROR: Rank 145(g:145) is aborting with error code 3.
	Process ID: 36816, Host: r1i1n8, Program: /data1/ww3desenv/home/wavewatch/ww3v607/model/exe/ww3_multi
	MPT Version: HPE MPT 2.17  11/01/17 04:27:42

MPT: --------stack traceback-------
 w3servmd MPI_ABORT, IEXIT=           3
 w3servmd UNIT missing
 w3servmd MSG missing
 w3servmd FILE missing
 w3servmd LINE missing
 w3servmd COMM missing
 w3servmd MPI_ABORT, IEXIT=           3
 w3servmd UNIT missing
 w3servmd MSG missing
 w3servmd FILE missing
 w3servmd LINE missing
 w3servmd COMM missing
 w3servmd MPI_ABORT, IEXIT=           3
 w3servmd UNIT missing
 w3servmd MSG missing
 w3servmd FILE missing
 w3servmd LINE missing
 w3servmd COMM missing
 w3servmd MPI_ABORT, IEXIT=           3
 w3servmd UNIT missing
 w3servmd MSG missing
 w3servmd FILE missing
 w3servmd LINE missing
 w3servmd COMM missing
 w3servmd MPI_ABORT, IEXIT=           3
 w3servmd UNIT missing
 w3servmd MSG missing
 w3servmd FILE missing
 w3servmd LINE missing
 w3servmd COMM missing
 w3servmd MPI_ABORT, IEXIT=           3
 w3servmd UNIT missing
 w3servmd MSG missing
 w3servmd FILE missing
 w3servmd LINE missing
 w3servmd COMM missing
 w3servmd MPI_ABORT, IEXIT=           3
 w3servmd UNIT missing
 w3servmd MSG missing
 w3servmd FILE missing
 w3servmd LINE missing
 w3servmd COMM missing
 w3servmd MPI_ABORT, IEXIT=           3
 w3servmd UNIT missing
 w3servmd MSG missing
 w3servmd MPI_ABORT, IEXIT=           3
 w3servmd UNIT missing
 w3servmd MSG missing
 w3servmd FILE missing
 w3servmd LINE missing
 w3servmd COMM missing
 w3servmd MPI_ABORT, IEXIT=           3
 w3servmd UNIT missing
 w3servmd MSG missing
 w3servmd FILE missing
 w3servmd LINE missing
 w3servmd COMM missing
 w3servmd FILE missing
 w3servmd LINE missing
 w3servmd COMM missing
 w3servmd MPI_ABORT, IEXIT=           3
 w3servmd UNIT missing
 w3servmd MSG missing
 w3servmd FILE missing
 w3servmd LINE missing
 w3servmd COMM missing
 w3servmd MPI_ABORT, IEXIT=           3
 w3servmd UNIT missing
 w3servmd MSG missing
 w3servmd FILE missing
 w3servmd LINE missing
 w3servmd COMM missing
 w3servmd MPI_ABORT, IEXIT=           3
 w3servmd UNIT missing
 w3servmd MSG missing
 w3servmd FILE missing
 w3servmd LINE missing
 w3servmd COMM missing
 w3servmd MPI_ABORT, IEXIT=           3
 w3servmd UNIT missing
 w3servmd MSG missing
 w3servmd FILE missing
 w3servmd LINE missing
 w3servmd COMM missing
 w3servmd MPI_ABORT, IEXIT=           3
 w3servmd UNIT missing
 w3servmd MSG missing
 w3servmd FILE missing
 w3servmd LINE missing
 w3servmd COMM missing
 w3servmd MPI_ABORT, IEXIT=           3
 w3servmd UNIT missing
 w3servmd MSG missing
 w3servmd FILE missing
 w3servmd LINE missing
 w3servmd COMM missing
 w3servmd MPI_ABORT, IEXIT=           3
 w3servmd UNIT missing
 w3servmd MSG missing
 w3servmd FILE missing
 w3servmd LINE missing
 w3servmd COMM missing
 w3servmd MPI_ABORT, IEXIT=           3
 w3servmd UNIT missing
 w3servmd MSG missing
 w3servmd FILE missing
 w3servmd LINE missing
 w3servmd COMM missing
 w3servmd MPI_ABORT, IEXIT=           3
 w3servmd UNIT missing
 w3servmd MSG missing
 w3servmd FILE missing
 w3servmd LINE missing
 w3servmd COMM missing
 w3servmd MPI_ABORT, IEXIT=           3
 w3servmd UNIT missing
 w3servmd MSG missing
 w3servmd FILE missing
 w3servmd LINE missing
 w3servmd COMM missing
 w3servmd MPI_ABORT, IEXIT=           3
 w3servmd UNIT missing
 w3servmd MSG missing
 w3servmd FILE missing
 w3servmd LINE missing
 w3servmd COMM missing
 w3servmd MPI_ABORT, IEXIT=           3
 w3servmd UNIT missing
 w3servmd MSG missing
 w3servmd FILE missing
 w3servmd MPI_ABORT, IEXIT=           3
 w3servmd UNIT missing
 w3servmd MSG missing
 w3servmd FILE missing
 w3servmd LINE missing
 w3servmd COMM missing
 ========== STARTING MWW3 INITIALIZATION (WMINIT) =============================

  Opening input file ww3_multi.inp (unit number  8)
 w3servmd LINE missing
 w3servmd COMM missing
 w3servmd MPI_ABORT, IEXIT=           3
 w3servmd UNIT missing
 w3servmd MSG missing
 w3servmd FILE missing
 w3servmd LINE missing
 w3servmd COMM missing
 w3servmd MPI_ABORT, IEXIT=           3
 w3servmd UNIT missing
 w3servmd MSG missing
 w3servmd FILE missing
 w3servmd LINE missing
 w3servmd COMM missing
 w3servmd MPI_ABORT, IEXIT=           3
 w3servmd UNIT missing
 w3servmd MSG missing
 w3servmd FILE missing
 w3servmd LINE missing
 w3servmd COMM missing
 w3servmd MPI_ABORT, IEXIT=           3
 w3servmd UNIT missing
 w3servmd MSG missing
 w3servmd FILE missing
 w3servmd LINE missing
 w3servmd COMM missing
 w3servmd MPI_ABORT, IEXIT=           3
 w3servmd UNIT missing
 w3servmd MSG missing
 w3servmd FILE missing
 w3servmd LINE missing
 w3servmd COMM missing
 w3servmd MPI_ABORT, IEXIT=           3
 w3servmd UNIT missing
 w3servmd MSG missing
 w3servmd FILE missing
 w3servmd LINE missing
 w3servmd COMM missing
 w3servmd MPI_ABORT, IEXIT=           3
 w3servmd UNIT missing
 w3servmd MSG missing
 w3servmd FILE missing
 w3servmd LINE missing
 w3servmd COMM missing
 w3servmd MPI_ABORT, IEXIT=           3
 w3servmd UNIT missing
 w3servmd MSG missing
 w3servmd FILE missing
 w3servmd LINE missing
 w3servmd COMM missing
 w3servmd MPI_ABORT, IEXIT=           3
 w3servmd UNIT missing
 w3servmd MSG missing
 w3servmd FILE missing
 w3servmd LINE missing
 w3servmd COMM missing
 w3servmd MPI_ABORT, IEXIT=           3
 w3servmd UNIT missing
 w3servmd MSG missing
 w3servmd FILE missing
 w3servmd LINE missing
 w3servmd COMM missing
 w3servmd MPI_ABORT, IEXIT=           3
 w3servmd UNIT missing
 w3servmd MSG missing
 w3servmd FILE missing
 w3servmd LINE missing
 w3servmd COMM missing
 w3servmd MPI_ABORT, IEXIT=           3
 w3servmd UNIT missing
 w3servmd MSG missing
 w3servmd FILE missing
 w3servmd LINE missing
 w3servmd COMM missing
 w3servmd MPI_ABORT, IEXIT=           3
 w3servmd UNIT missing
 w3servmd MSG missing
 w3servmd FILE missing
 w3servmd LINE missing
 w3servmd COMM missing
 w3servmd MPI_ABORT, IEXIT=           3
 w3servmd UNIT missing
 w3servmd MSG missing
 w3servmd FILE missing
 w3servmd LINE missing
 w3servmd COMM missing
 w3servmd MPI_ABORT, IEXIT=           3
 w3servmd UNIT missing
 w3servmd MSG missing
 w3servmd FILE missing
 w3servmd LINE missing
 w3servmd COMM missing
 w3servmd MPI_ABORT, IEXIT=           3
 w3servmd UNIT missing
 w3servmd MSG missing
 w3servmd FILE missing
 w3servmd LINE missing
 w3servmd COMM missing
 w3servmd MPI_ABORT, IEXIT=           3
 w3servmd UNIT missing
 w3servmd MSG missing
 w3servmd FILE missing
 w3servmd LINE missing
 w3servmd COMM missing
 w3servmd MPI_ABORT, IEXIT=           3
 w3servmd UNIT missing
 w3servmd MSG missing
 w3servmd FILE missing
 w3servmd LINE missing
 w3servmd COMM missing
 w3servmd MPI_ABORT, IEXIT=           3
 w3servmd UNIT missing
 w3servmd MSG missing
 w3servmd FILE missing
 w3servmd LINE missing
 w3servmd COMM missing
 w3servmd MPI_ABORT, IEXIT=           3
 w3servmd UNIT missing
 w3servmd MSG missing
 w3servmd FILE missing
 w3servmd LINE missing
 w3servmd COMM missing
 w3servmd MPI_ABORT, IEXIT=           3
 w3servmd UNIT missing
 w3servmd MSG missing
 w3servmd FILE missing
 w3servmd LINE missing
 w3servmd COMM missing
  Opening output file log.mww3 (unit number  9)

  Comment character : '$'
 w3servmd MPI_ABORT, IEXIT=           3
 w3servmd UNIT missing
 w3servmd MSG missing
 w3servmd FILE missing
 w3servmd LINE missing
 w3servmd COMM missing
 w3servmd MPI_ABORT, IEXIT=           3
 w3servmd UNIT missing
 w3servmd MSG missing
 w3servmd FILE missing
 w3servmd LINE missing
 w3servmd COMM missing

 *** WAVEWATCH III ERROR IN NEXTLN : 
     ERROR ON BACKSPACE
     IOSTAT =  264
     IOMSG = operation requires file to be on disk or tape, unit 8, file /data1/ww3desenv/home/mod_ondas/work/./ww3_multi.inp

 w3servmd MPI_ABORT, IEXIT=           3
 w3servmd UNIT missing
 w3servmd MSG missing
 w3servmd MPI_ABORT, IEXIT=           3
 w3servmd UNIT missing
 w3servmd MSG missing
 w3servmd FILE missing
 w3servmd LINE missing
 w3servmd COMM missing
 w3servmd MPI_ABORT, IEXIT=           3
 w3servmd UNIT missing
 w3servmd MSG missing
 w3servmd FILE missing
 w3servmd LINE missing
 w3servmd COMM missing
 w3servmd FILE missing
 w3servmd LINE missing
 w3servmd COMM missing
 w3servmd MPI_ABORT, IEXIT=           3
 w3servmd UNIT missing
 w3servmd MSG missing
 w3servmd FILE missing
 w3servmd LINE missing
 w3servmd COMM missing
MPT ERROR: Rank 101(g:101) is aborting with error code 3.
	Process ID: 39165, Host: r1i1n6, Program: /data1/ww3desenv/home/wavewatch/ww3v607/model/exe/ww3_multi
	MPT Version: HPE MPT 2.17  11/01/17 04:27:42

MPT: --------stack traceback-------
 w3servmd MPI_ABORT, IEXIT=           3
 w3servmd UNIT missing
 w3servmd MSG missing
 w3servmd FILE missing
 w3servmd LINE missing
 w3servmd COMM missing
 w3servmd MPI_ABORT, IEXIT=           3
 w3servmd UNIT missing
 w3servmd MSG missing
 w3servmd FILE missing
 w3servmd LINE missing
 w3servmd COMM missing
 w3servmd MPI_ABORT, IEXIT=           3
 w3servmd UNIT missing
 w3servmd MSG missing
 w3servmd FILE missing
 w3servmd LINE missing
 w3servmd COMM missing
MPT ERROR: Rank 121(g:121) is aborting with error code 3.
	Process ID: 39112, Host: r1i1n7, Program: /data1/ww3desenv/home/wavewatch/ww3v607/model/exe/ww3_multi
	MPT Version: HPE MPT 2.17  11/01/17 04:27:42

MPT: --------stack traceback-------
 w3servmd MPI_ABORT, IEXIT=           3
 w3servmd UNIT missing
 w3servmd MSG missing
 w3servmd FILE missing
 w3servmd LINE missing
 w3servmd COMM missing
 w3servmd MPI_ABORT, IEXIT=           3
 w3servmd UNIT missing
 w3servmd MSG missing
 w3servmd FILE missing
 w3servmd LINE missing
 w3servmd COMM missing
 w3servmd MPI_ABORT, IEXIT=           3
 w3servmd UNIT missing
 w3servmd MSG missing
 w3servmd FILE missing
 w3servmd LINE missing
 w3servmd COMM missing
 w3servmd MPI_ABORT, IEXIT=           3
 w3servmd UNIT missing
 w3servmd MSG missing
 w3servmd FILE missing
 w3servmd LINE missing
 w3servmd COMM missing
 w3servmd MPI_ABORT, IEXIT=           3
 w3servmd UNIT missing
 w3servmd MSG missing
 w3servmd FILE missing
 w3servmd LINE missing
 w3servmd COMM missing
 w3servmd MPI_ABORT, IEXIT=           3
 w3servmd UNIT missing
 w3servmd MSG missing
 w3servmd FILE missing
 w3servmd LINE missing
 w3servmd COMM missing
 w3servmd MPI_ABORT, IEXIT=           3
 w3servmd UNIT missing
 w3servmd MSG missing
 w3servmd FILE missing
 w3servmd LINE missing
 w3servmd COMM missing
MPT ERROR: Rank 64(g:64) is aborting with error code 3.
	Process ID: 38015, Host: r1i1n4, Program: /data1/ww3desenv/home/wavewatch/ww3v607/model/exe/ww3_multi
	MPT Version: HPE MPT 2.17  11/01/17 04:27:42

MPT: --------stack traceback-------
 w3servmd MPI_ABORT, IEXIT=           3
 w3servmd UNIT missing
 w3servmd MSG missing
 w3servmd FILE missing
 w3servmd LINE missing
 w3servmd COMM missing
 w3servmd MPI_ABORT, IEXIT=           3
 w3servmd UNIT missing
 w3servmd MSG missing
 w3servmd FILE missing
 w3servmd LINE missing
 w3servmd COMM missing
 w3servmd MPI_ABORT, IEXIT=           3
 w3servmd UNIT missing
 w3servmd MSG missing
 w3servmd FILE missing
 w3servmd LINE missing
 w3servmd COMM missing
 w3servmd MPI_ABORT, IEXIT=           3
 w3servmd UNIT missing
 w3servmd MSG missing
 w3servmd FILE missing
 w3servmd LINE missing
 w3servmd COMM missing
 w3servmd MPI_ABORT, IEXIT=           3
 w3servmd UNIT missing
 w3servmd MSG missing
 w3servmd FILE missing
 w3servmd LINE missing
 w3servmd COMM missing
 w3servmd MPI_ABORT, IEXIT=           3
 w3servmd UNIT missing
 w3servmd MSG missing
 w3servmd FILE missing
 w3servmd LINE missing
 w3servmd COMM missing
 w3servmd MPI_ABORT, IEXIT=           3
 w3servmd UNIT missing
 w3servmd MSG missing
 w3servmd FILE missing
 w3servmd LINE missing
 w3servmd COMM missing
 w3servmd MPI_ABORT, IEXIT=           3
 w3servmd UNIT missing
 w3servmd MSG missing
 w3servmd FILE missing
 w3servmd LINE missing
 w3servmd COMM missing
 w3servmd MPI_ABORT, IEXIT=           3
 w3servmd UNIT missing
 w3servmd MSG missing
 w3servmd FILE missing
 w3servmd LINE missing
 w3servmd COMM missing
 w3servmd MPI_ABORT, IEXIT=           3
 w3servmd UNIT missing
 w3servmd MSG missing
 w3servmd FILE missing
 w3servmd LINE missing
 w3servmd COMM missing
 w3servmd MPI_ABORT, IEXIT=           3
 w3servmd UNIT missing
 w3servmd MSG missing
 w3servmd FILE missing
 w3servmd LINE missing
 w3servmd COMM missing
 w3servmd MPI_ABORT, IEXIT=           3
 w3servmd UNIT missing
 w3servmd MSG missing
 w3servmd FILE missing
 w3servmd LINE missing
 w3servmd COMM missing
 w3servmd MPI_ABORT, IEXIT=           3
 w3servmd UNIT missing
 w3servmd MSG missing
 w3servmd FILE missing
 w3servmd LINE missing
 w3servmd COMM missing
 w3servmd MPI_ABORT, IEXIT=           3
 w3servmd UNIT missing
 w3servmd MSG missing
 w3servmd FILE missing
 w3servmd LINE missing
 w3servmd COMM missing
 w3servmd MPI_ABORT, IEXIT=           3
 w3servmd UNIT missing
 w3servmd MSG missing
 w3servmd FILE missing
 w3servmd LINE missing
 w3servmd COMM missing
 w3servmd MPI_ABORT, IEXIT=           3
 w3servmd UNIT missing
 w3servmd MSG missing
 w3servmd FILE missing
 w3servmd LINE missing
 w3servmd COMM missing
 w3servmd MPI_ABORT, IEXIT=           3
 w3servmd UNIT missing
 w3servmd MSG missing
 w3servmd FILE missing
 w3servmd LINE missing
 w3servmd COMM missing
 w3servmd MPI_ABORT, IEXIT=           3
 w3servmd UNIT missing
 w3servmd MSG missing
 w3servmd FILE missing
 w3servmd LINE missing
 w3servmd COMM missing
 w3servmd MPI_ABORT, IEXIT=           3
 w3servmd UNIT missing
 w3servmd MSG missing
 w3servmd FILE missing
 w3servmd LINE missing
 w3servmd COMM missing
 w3servmd MPI_ABORT, IEXIT=           3
 w3servmd UNIT missing
 w3servmd MSG missing
 w3servmd FILE missing
 w3servmd LINE missing
 w3servmd COMM missing
 w3servmd MPI_ABORT, IEXIT=           3
 w3servmd UNIT missing
 w3servmd MSG missing
 w3servmd FILE missing
 w3servmd LINE missing
 w3servmd COMM missing
 w3servmd MPI_ABORT, IEXIT=           3
 w3servmd UNIT missing
 w3servmd MSG missing
 w3servmd FILE missing
 w3servmd LINE missing
 w3servmd COMM missing
 w3servmd MPI_ABORT, IEXIT=           3
 w3servmd UNIT missing
 w3servmd MSG missing
 w3servmd FILE missing
 w3servmd LINE missing
 w3servmd COMM missing
 w3servmd MPI_ABORT, IEXIT=           3
 w3servmd UNIT missing
 w3servmd MSG missing
 w3servmd FILE missing
 w3servmd LINE missing
 w3servmd COMM missing
 w3servmd MPI_ABORT, IEXIT=           3
 w3servmd UNIT missing
 w3servmd MSG missing
 w3servmd FILE missing
 w3servmd LINE missing
 w3servmd COMM missing
 w3servmd MPI_ABORT, IEXIT=           3
 w3servmd UNIT missing
 w3servmd MSG missing
 w3servmd FILE missing
 w3servmd LINE missing
 w3servmd COMM missing
 w3servmd MPI_ABORT, IEXIT=           3
 w3servmd UNIT missing
 w3servmd MSG missing
 w3servmd FILE missing
 w3servmd LINE missing
 w3servmd COMM missing
 w3servmd MPI_ABORT, IEXIT=           3
 w3servmd UNIT missing
 w3servmd MSG missing
 w3servmd FILE missing
 w3servmd LINE missing
 w3servmd COMM missing
 w3servmd MPI_ABORT, IEXIT=           3
 w3servmd UNIT missing
 w3servmd MSG missing
 w3servmd FILE missing
 w3servmd LINE missing
 w3servmd COMM missing
 w3servmd MPI_ABORT, IEXIT=           3
 w3servmd UNIT missing
 w3servmd MSG missing
 w3servmd FILE missing
 w3servmd LINE missing
 w3servmd COMM missing
 w3servmd MPI_ABORT, IEXIT=           3
 w3servmd UNIT missing
 w3servmd MSG missing
 w3servmd FILE missing
 w3servmd LINE missing
 w3servmd COMM missing
 w3servmd MPI_ABORT, IEXIT=           3
 w3servmd UNIT missing
 w3servmd MSG missing
 w3servmd FILE missing
 w3servmd LINE missing
 w3servmd COMM missing
 w3servmd MPI_ABORT, IEXIT=           3
 w3servmd UNIT missing
 w3servmd MSG missing
 w3servmd FILE missing
 w3servmd LINE missing
 w3servmd COMM missing
 w3servmd MPI_ABORT, IEXIT=           3
 w3servmd UNIT missing
 w3servmd MSG missing
 w3servmd FILE missing
 w3servmd LINE missing
 w3servmd COMM missing
 w3servmd MPI_ABORT, IEXIT=           3
 w3servmd UNIT missing
 w3servmd MSG missing
 w3servmd FILE missing
 w3servmd LINE missing
 w3servmd COMM missing
 w3servmd MPI_ABORT, IEXIT=           3
 w3servmd UNIT missing
 w3servmd MSG missing
 w3servmd FILE missing
 w3servmd LINE missing
 w3servmd COMM missing
 w3servmd MPI_ABORT, IEXIT=           3
 w3servmd UNIT missing
 w3servmd MSG missing
 w3servmd FILE missing
 w3servmd LINE missing
 w3servmd COMM missing
 w3servmd MPI_ABORT, IEXIT=           3
 w3servmd UNIT missing
 w3servmd MSG missing
 w3servmd FILE missing
 w3servmd LINE missing
 w3servmd COMM missing
 w3servmd MPI_ABORT, IEXIT=           3
 w3servmd UNIT missing
 w3servmd MSG missing
 w3servmd FILE missing
 w3servmd LINE missing
 w3servmd COMM missing
 w3servmd MPI_ABORT, IEXIT=           3
 w3servmd UNIT missing
 w3servmd MSG missing
 w3servmd FILE missing
 w3servmd LINE missing
 w3servmd COMM missing
 w3servmd MPI_ABORT, IEXIT=           3
 w3servmd UNIT missing
 w3servmd MSG missing
 w3servmd FILE missing
 w3servmd LINE missing
 w3servmd COMM missing
 w3servmd MPI_ABORT, IEXIT=           3
 w3servmd UNIT missing
 w3servmd MSG missing
 w3servmd FILE missing
 w3servmd LINE missing
 w3servmd COMM missing
 w3servmd MPI_ABORT, IEXIT=           3
 w3servmd UNIT missing
 w3servmd MSG missing
 w3servmd FILE missing
 w3servmd LINE missing
 w3servmd COMM missing
 w3servmd MPI_ABORT, IEXIT=           3
 w3servmd UNIT missing
 w3servmd MSG missing
 w3servmd FILE missing
 w3servmd LINE missing
 w3servmd COMM missing
 w3servmd MPI_ABORT, IEXIT=           3
 w3servmd UNIT missing
 w3servmd MSG missing
 w3servmd FILE missing
 w3servmd LINE missing
 w3servmd COMM missing
 w3servmd MPI_ABORT, IEXIT=           3
 w3servmd UNIT missing
 w3servmd MSG missing
 w3servmd FILE missing
 w3servmd LINE missing
 w3servmd COMM missing
 w3servmd MPI_ABORT, IEXIT=           3
 w3servmd UNIT missing
 w3servmd MSG missing
 w3servmd FILE missing
 w3servmd LINE missing
 w3servmd COMM missing
 w3servmd MPI_ABORT, IEXIT=           3
 w3servmd UNIT missing
 w3servmd MSG missing
 w3servmd FILE missing
 w3servmd LINE missing
 w3servmd COMM missing
 w3servmd MPI_ABORT, IEXIT=           3
 w3servmd UNIT missing
 w3servmd MSG missing
 w3servmd FILE missing
 w3servmd LINE missing
 w3servmd COMM missing
 w3servmd MPI_ABORT, IEXIT=           3
 w3servmd UNIT missing
 w3servmd MSG missing
 w3servmd FILE missing
 w3servmd LINE missing
 w3servmd COMM missing
 w3servmd MPI_ABORT, IEXIT=           3
 w3servmd UNIT missing
 w3servmd MSG missing
 w3servmd FILE missing
 w3servmd LINE missing
 w3servmd COMM missing
 w3servmd MPI_ABORT, IEXIT=           3
 w3servmd UNIT missing
 w3servmd MSG missing
 w3servmd FILE missing
 w3servmd LINE missing
 w3servmd COMM missing
 w3servmd MPI_ABORT, IEXIT=           3
 w3servmd UNIT missing
 w3servmd MSG missing
 w3servmd FILE missing
 w3servmd LINE missing
 w3servmd COMM missing
 w3servmd MPI_ABORT, IEXIT=           3
 w3servmd UNIT missing
 w3servmd MSG missing
 w3servmd FILE missing
 w3servmd LINE missing
 w3servmd COMM missing
MPT ERROR: MPI_COMM_WORLD rank 146 has terminated without calling MPI_Finalize()
	aborting job
MPT: Shepherd process aborted
real 1.75
user 0.00
sys 0.00

 Copiando os arquivos de output e restarts da rodada do WW3/icon data: 2019082700

 Já existe o diretório outdir 

[...]
 w3servmd LINE missing
 w3servmd COMM missing
 w3servmd MPI_ABORT, IEXIT=           3
 w3servmd UNIT missing
 w3servmd MSG missing
 w3servmd FILE missing
 w3servmd LINE missing
 w3servmd COMM missing
 w3servmd MPI_ABORT, IEXIT=           3
 w3servmd UNIT missing
 w3servmd MSG missing
 w3servmd FILE missing
 w3servmd LINE missing
 w3servmd COMM missing
 w3servmd MPI_ABORT, IEXIT=           3
 w3servmd UNIT missing
 w3servmd MSG missing
 w3servmd FILE missing
 w3servmd LINE missing
 w3servmd MPI_ABORT, IEXIT=           3
 w3servmd UNIT missing
 w3servmd MSG missing
 w3servmd FILE missing
 w3servmd LINE missing
 w3servmd COMM missing
 w3servmd MPI_ABORT, IEXIT=           3
 w3servmd UNIT missing
 w3servmd MSG missing
 w3servmd FILE missing
 w3servmd LINE missing
 w3servmd COMM missing
 w3servmd MPI_ABORT, IEXIT=           3
 w3servmd UNIT missing
 w3servmd MSG missing
 w3servmd FILE missing
 w3servmd LINE missing
 w3servmd COMM missing
 w3servmd MPI_ABORT, IEXIT=           3
 w3servmd UNIT missing
 w3servmd MSG missing
 w3servmd FILE missing
 w3servmd LINE missing
 w3servmd COMM missing
 w3servmd MPI_ABORT, IEXIT=           3
 w3servmd UNIT missing
 w3servmd MSG missing
 w3servmd FILE missing
 w3servmd LINE missing
 w3servmd COMM missing
 w3servmd COMM missing
 w3servmd MPI_ABORT, IEXIT=           3
 w3servmd UNIT missing
 w3servmd MSG missing
 w3servmd FILE missing
 w3servmd MPI_ABORT, IEXIT=           3
 w3servmd UNIT missing
 w3servmd MSG missing
 w3servmd FILE missing
 w3servmd LINE missing
 w3servmd COMM missing
 w3servmd MPI_ABORT, IEXIT=           3
 w3servmd UNIT missing
 w3servmd MSG missing
 w3servmd FILE missing
 w3servmd LINE missing
 w3servmd COMM missing
MPT ERROR: Rank 148(g:148) is aborting with error code 3.
	Process ID: 37745, Host: r1i1n8, Program: /data1/ww3desenv/home/wavewatch/ww3v607/model/exe/ww3_multi
	MPT Version: HPE MPT 2.17  11/01/17 04:27:42

MPT: --------stack traceback-------
 w3servmd MPI_ABORT, IEXIT=           3
 w3servmd UNIT missing
 w3servmd MSG missing
 w3servmd FILE missing
 w3servmd LINE missing
 w3servmd COMM missing
 w3servmd MPI_ABORT, IEXIT=           3
 w3servmd UNIT missing
 w3servmd MSG missing
 w3servmd FILE missing
 w3servmd LINE missing
 w3servmd COMM missing
 w3servmd LINE missing
 w3servmd COMM missing
 w3servmd MPI_ABORT, IEXIT=           3
 w3servmd UNIT missing
 w3servmd MSG missing
 w3servmd FILE missing
 w3servmd LINE missing
 w3servmd COMM missing
 w3servmd MPI_ABORT, IEXIT=           3
 w3servmd UNIT missing
 w3servmd MSG missing
 w3servmd FILE missing
 w3servmd LINE missing
 w3servmd COMM missing
 w3servmd MPI_ABORT, IEXIT=           3
 w3servmd UNIT missing
 w3servmd MSG missing
 w3servmd FILE missing
 w3servmd LINE missing
 w3servmd COMM missing
 w3servmd MPI_ABORT, IEXIT=           3
 w3servmd UNIT missing
 w3servmd MSG missing
 w3servmd FILE missing
 w3servmd LINE missing
 w3servmd COMM missing
 w3servmd MPI_ABORT, IEXIT=           3
 w3servmd UNIT missing
 w3servmd MSG missing
 w3servmd FILE missing
 w3servmd LINE missing
 w3servmd COMM missing
 w3servmd MPI_ABORT, IEXIT=           3
 w3servmd UNIT missing
 w3servmd MSG missing
 w3servmd FILE missing
 w3servmd LINE missing
 w3servmd COMM missing
 w3servmd MPI_ABORT, IEXIT=           3
 w3servmd UNIT missing
 w3servmd MSG missing
 w3servmd FILE missing
 w3servmd LINE missing
 w3servmd COMM missing
 w3servmd MPI_ABORT, IEXIT=           3
 w3servmd UNIT missing
 w3servmd MSG missing
 w3servmd FILE missing
 w3servmd LINE missing
 w3servmd COMM missing
 w3servmd MPI_ABORT, IEXIT=           3
 w3servmd UNIT missing
 w3servmd MSG missing
 w3servmd FILE missing
 w3servmd LINE missing
 w3servmd COMM missing
 w3servmd MPI_ABORT, IEXIT=           3
 w3servmd UNIT missing
 w3servmd MSG missing
 w3servmd FILE missing
 w3servmd LINE missing
 w3servmd COMM missing
 w3servmd MPI_ABORT, IEXIT=           3
 w3servmd UNIT missing
 w3servmd MSG missing
 w3servmd FILE missing
 w3servmd LINE missing
 w3servmd COMM missing
 w3servmd MPI_ABORT, IEXIT=           3
 w3servmd UNIT missing
 w3servmd MSG missing
 w3servmd FILE missing
 w3servmd LINE missing
 w3servmd COMM missing
 w3servmd MPI_ABORT, IEXIT=           3
 w3servmd UNIT missing
 w3servmd MSG missing
 w3servmd FILE missing
 w3servmd LINE missing
 w3servmd COMM missing
 w3servmd MPI_ABORT, IEXIT=           3
 w3servmd UNIT missing
 w3servmd MSG missing
 w3servmd FILE missing
 w3servmd LINE missing
 w3servmd COMM missing
 w3servmd MPI_ABORT, IEXIT=           3
 w3servmd UNIT missing
 w3servmd MSG missing
 w3servmd FILE missing
 w3servmd LINE missing
 w3servmd COMM missing
 w3servmd MPI_ABORT, IEXIT=           3
 w3servmd UNIT missing
 w3servmd MSG missing
 w3servmd FILE missing
 w3servmd LINE missing
 w3servmd COMM missing
 w3servmd MPI_ABORT, IEXIT=           3
 w3servmd UNIT missing
 w3servmd MSG missing
 w3servmd FILE missing
 w3servmd LINE missing
 w3servmd COMM missing
 w3servmd MPI_ABORT, IEXIT=           3
 w3servmd UNIT missing
 w3servmd MSG missing
 w3servmd FILE missing
 w3servmd LINE missing
 w3servmd COMM missing
 w3servmd MPI_ABORT, IEXIT=           3
 w3servmd UNIT missing
 w3servmd MSG missing
 w3servmd FILE missing
 w3servmd LINE missing
 w3servmd COMM missing
 w3servmd MPI_ABORT, IEXIT=           3
 w3servmd UNIT missing
 w3servmd MSG missing
 w3servmd FILE missing
 w3servmd LINE missing
 w3servmd COMM missing
 w3servmd MPI_ABORT, IEXIT=           3
 w3servmd UNIT missing
 w3servmd MSG missing
 w3servmd FILE missing
 w3servmd LINE missing
 w3servmd COMM missing
 w3servmd MPI_ABORT, IEXIT=           3
 w3servmd UNIT missing
 w3servmd MSG missing
 w3servmd FILE missing
 w3servmd LINE missing
 w3servmd COMM missing
 w3servmd MPI_ABORT, IEXIT=           3
 w3servmd UNIT missing
 w3servmd MSG missing
 w3servmd FILE missing
 w3servmd LINE missing
 w3servmd COMM missing
 w3servmd MPI_ABORT, IEXIT=           3
 w3servmd UNIT missing
 w3servmd MSG missing
 w3servmd FILE missing
 w3servmd LINE missing
 w3servmd COMM missing
 w3servmd MPI_ABORT, IEXIT=           3
 w3servmd UNIT missing
 w3servmd MSG missing
 w3servmd FILE missing
 w3servmd LINE missing
 w3servmd COMM missing
 w3servmd MPI_ABORT, IEXIT=           3
 w3servmd UNIT missing
 w3servmd MSG missing
 w3servmd FILE missing
 w3servmd LINE missing
 w3servmd COMM missing
 w3servmd MPI_ABORT, IEXIT=           3
 w3servmd UNIT missing
 w3servmd MSG missing
 w3servmd FILE missing
 w3servmd LINE missing
 w3servmd COMM missing
 w3servmd MPI_ABORT, IEXIT=           3
 w3servmd UNIT missing
 w3servmd MSG missing
 w3servmd FILE missing
 w3servmd LINE missing
 w3servmd COMM missing
 w3servmd MPI_ABORT, IEXIT=           3
 w3servmd UNIT missing
 w3servmd MSG missing
 w3servmd FILE missing
 w3servmd LINE missing
 w3servmd COMM missing
 w3servmd MPI_ABORT, IEXIT=           3
 w3servmd UNIT missing
 w3servmd MSG missing
 ========== STARTING MWW3 INITIALIZATION (WMINIT) =============================

 w3servmd MPI_ABORT, IEXIT=           3
 w3servmd UNIT missing
 w3servmd MSG missing
 w3servmd FILE missing
 w3servmd LINE missing
 w3servmd COMM missing
 w3servmd MPI_ABORT, IEXIT=           3
 w3servmd UNIT missing
 w3servmd MSG missing
 w3servmd FILE missing
 w3servmd LINE missing
 w3servmd COMM missing
 w3servmd MPI_ABORT, IEXIT=           3
 w3servmd UNIT missing
 w3servmd MSG missing
 w3servmd FILE missing
 w3servmd LINE missing
 w3servmd COMM missing
 w3servmd MPI_ABORT, IEXIT=           3
 w3servmd UNIT missing
 w3servmd MSG missing
 w3servmd FILE missing
 w3servmd LINE missing
 w3servmd COMM missing
 w3servmd FILE missing
 w3servmd LINE missing
 w3servmd COMM missing
  Opening input file ww3_multi.inp (unit number  8)
 w3servmd MPI_ABORT, IEXIT=           3
 w3servmd UNIT missing
 w3servmd MSG missing
 w3servmd FILE missing
 w3servmd LINE missing
 w3servmd COMM missing
 w3servmd MPI_ABORT, IEXIT=           3
 w3servmd UNIT missing
 w3servmd MSG missing
 w3servmd FILE missing
 w3servmd LINE missing
 w3servmd COMM missing
 w3servmd MPI_ABORT, IEXIT=           3
 w3servmd UNIT missing
 w3servmd MSG missing
 w3servmd FILE missing
 w3servmd LINE missing
 w3servmd COMM missing
 w3servmd MPI_ABORT, IEXIT=           3
 w3servmd UNIT missing
 w3servmd MSG missing
 w3servmd FILE missing
 w3servmd LINE missing
 w3servmd COMM missing
 w3servmd MPI_ABORT, IEXIT=           3
 w3servmd UNIT missing
 w3servmd MSG missing
 w3servmd FILE missing
 w3servmd LINE missing
 w3servmd COMM missing
 w3servmd MPI_ABORT, IEXIT=           3
 w3servmd UNIT missing
 w3servmd MSG missing
 w3servmd FILE missing
 w3servmd LINE missing
 w3servmd COMM missing
 w3servmd MPI_ABORT, IEXIT=           3
 w3servmd UNIT missing
 w3servmd MSG missing
 w3servmd FILE missing
 w3servmd LINE missing
 w3servmd COMM missing
 w3servmd MPI_ABORT, IEXIT=           3
 w3servmd UNIT missing
 w3servmd MSG missing
 w3servmd FILE missing
 w3servmd LINE missing
 w3servmd COMM missing
 w3servmd MPI_ABORT, IEXIT=           3
 w3servmd UNIT missing
 w3servmd MSG missing
 w3servmd FILE missing
 w3servmd LINE missing
 w3servmd COMM missing
 w3servmd MPI_ABORT, IEXIT=           3
 w3servmd UNIT missing
 w3servmd MSG missing
 w3servmd FILE missing
 w3servmd LINE missing
 w3servmd COMM missing
 w3servmd MPI_ABORT, IEXIT=           3
 w3servmd UNIT missing
 w3servmd MSG missing
 w3servmd FILE missing
 w3servmd LINE missing
 w3servmd COMM missing
 w3servmd MPI_ABORT, IEXIT=           3
 w3servmd UNIT missing
 w3servmd MSG missing
 w3servmd FILE missing
 w3servmd LINE missing
 w3servmd COMM missing
 w3servmd MPI_ABORT, IEXIT=           3
 w3servmd UNIT missing
 w3servmd MSG missing
 w3servmd FILE missing
 w3servmd LINE missing
 w3servmd COMM missing
 w3servmd MPI_ABORT, IEXIT=           3
 w3servmd UNIT missing
 w3servmd MSG missing
 w3servmd FILE missing
 w3servmd LINE missing
 w3servmd COMM missing
 w3servmd MPI_ABORT, IEXIT=           3
 w3servmd UNIT missing
 w3servmd MSG missing
 w3servmd FILE missing
 w3servmd LINE missing
 w3servmd COMM missing
 w3servmd MPI_ABORT, IEXIT=           3
 w3servmd UNIT missing
 w3servmd MSG missing
 w3servmd FILE missing
 w3servmd LINE missing
 w3servmd COMM missing
 w3servmd MPI_ABORT, IEXIT=           3
 w3servmd UNIT missing
 w3servmd MSG missing
 w3servmd FILE missing
 w3servmd LINE missing
 w3servmd COMM missing
 w3servmd MPI_ABORT, IEXIT=           3
 w3servmd UNIT missing
 w3servmd MSG missing
 w3servmd FILE missing
 w3servmd LINE missing
 w3servmd COMM missing
 w3servmd MPI_ABORT, IEXIT=           3
 w3servmd UNIT missing
 w3servmd MSG missing
 w3servmd FILE missing
 w3servmd LINE missing
 w3servmd COMM missing
 w3servmd MPI_ABORT, IEXIT=           3
 w3servmd UNIT missing
 w3servmd MSG missing
 w3servmd FILE missing
 w3servmd LINE missing
 w3servmd COMM missing
 w3servmd MPI_ABORT, IEXIT=           3
 w3servmd UNIT missing
 w3servmd MSG missing
 w3servmd FILE missing
 w3servmd LINE missing
 w3servmd COMM missing
 w3servmd MPI_ABORT, IEXIT=           3
 w3servmd UNIT missing
 w3servmd MSG missing
 w3servmd FILE missing
 w3servmd LINE missing
 w3servmd COMM missing
 w3servmd MPI_ABORT, IEXIT=           3
 w3servmd UNIT missing
 w3servmd MSG missing
 w3servmd FILE missing
 w3servmd LINE missing
 w3servmd COMM missing
 w3servmd MPI_ABORT, IEXIT=           3
 w3servmd UNIT missing
 w3servmd MSG missing
 w3servmd FILE missing
 w3servmd LINE missing
 w3servmd COMM missing
 w3servmd MPI_ABORT, IEXIT=           3
 w3servmd UNIT missing
 w3servmd MSG missing
 w3servmd FILE missing
 w3servmd LINE missing
 w3servmd COMM missing
 w3servmd MPI_ABORT, IEXIT=           3
 w3servmd UNIT missing
 w3servmd MSG missing
 w3servmd FILE missing
 w3servmd LINE missing
 w3servmd COMM missing
 w3servmd MPI_ABORT, IEXIT=           3
 w3servmd UNIT missing
 w3servmd MSG missing
 w3servmd FILE missing
 w3servmd LINE missing
 w3servmd COMM missing
 w3servmd MPI_ABORT, IEXIT=           3
 w3servmd UNIT missing
 w3servmd MSG missing
 w3servmd FILE missing
 w3servmd LINE missing
 w3servmd COMM missing
 w3servmd MPI_ABORT, IEXIT=           3
 w3servmd UNIT missing
 w3servmd MSG missing
 w3servmd FILE missing
 w3servmd LINE missing
 w3servmd COMM missing
 w3servmd MPI_ABORT, IEXIT=           3
 w3servmd UNIT missing
 w3servmd MSG missing
 w3servmd FILE missing
 w3servmd LINE missing
 w3servmd COMM missing
 w3servmd MPI_ABORT, IEXIT=           3
 w3servmd UNIT missing
 w3servmd MSG missing
 w3servmd FILE missing
 w3servmd LINE missing
 w3servmd COMM missing
 w3servmd MPI_ABORT, IEXIT=           3
 w3servmd UNIT missing
 w3servmd MSG missing
 w3servmd FILE missing
 w3servmd LINE missing
 w3servmd COMM missing
 w3servmd MPI_ABORT, IEXIT=           3
 w3servmd UNIT missing
 w3servmd MSG missing
 w3servmd FILE missing
 w3servmd LINE missing
 w3servmd COMM missing
 w3servmd MPI_ABORT, IEXIT=           3
 w3servmd UNIT missing
 w3servmd MSG missing
 w3servmd FILE missing
 w3servmd LINE missing
 w3servmd COMM missing
 w3servmd MPI_ABORT, IEXIT=           3
 w3servmd UNIT missing
 w3servmd MSG missing
 w3servmd FILE missing
 w3servmd LINE missing
 w3servmd COMM missing
 w3servmd MPI_ABORT, IEXIT=           3
 w3servmd UNIT missing
 w3servmd MSG missing
 w3servmd FILE missing
 w3servmd LINE missing
 w3servmd COMM missing
 w3servmd MPI_ABORT, IEXIT=           3
 w3servmd UNIT missing
 w3servmd MSG missing
 w3servmd FILE missing
 w3servmd LINE missing
 w3servmd COMM missing
 w3servmd MPI_ABORT, IEXIT=           3
 w3servmd UNIT missing
 w3servmd MSG missing
 w3servmd FILE missing
 w3servmd LINE missing
 w3servmd COMM missing
 w3servmd MPI_ABORT, IEXIT=           3
 w3servmd UNIT missing
 w3servmd MSG missing
 w3servmd FILE missing
 w3servmd LINE missing
 w3servmd COMM missing
 w3servmd MPI_ABORT, IEXIT=           3
 w3servmd UNIT missing
 w3servmd MSG missing
 w3servmd FILE missing
 w3servmd LINE missing
 w3servmd COMM missing
 w3servmd MPI_ABORT, IEXIT=           3
 w3servmd UNIT missing
 w3servmd MSG missing
 w3servmd FILE missing
 w3servmd LINE missing
 w3servmd COMM missing
  Opening output file log.mww3 (unit number  9)

  Comment character : '$'
 w3servmd MPI_ABORT, IEXIT=           3
 w3servmd UNIT missing
 w3servmd MSG missing
 w3servmd FILE missing
 w3servmd LINE missing
 w3servmd COMM missing

 *** WAVEWATCH III ERROR IN NEXTLN : 
     ERROR ON BACKSPACE
     IOSTAT =  264
     IOMSG = operation requires file to be on disk or tape, unit 8, file /data1/ww3desenv/home/mod_ondas/work/./ww3_multi.inp

 w3servmd MPI_ABORT, IEXIT=           3
 w3servmd UNIT missing
 w3servmd MPI_ABORT, IEXIT=           3
 w3servmd UNIT missing
 w3servmd MSG missing
 w3servmd FILE missing
 w3servmd LINE missing
 w3servmd COMM missing
 w3servmd MSG missing
 w3servmd FILE missing
 w3servmd LINE missing
 w3servmd COMM missing
MPT ERROR: MPI_COMM_WORLD rank 13 has terminated without calling MPI_Finalize()
	aborting job
MPT: Shepherd process aborted
real 1.75
user 0.00
sys 0.00

 Copiando os arquivos de output e restarts da rodada do WW3/icon13 data: 2019082700

 Já existe o diretório outdir 

 Copiando restarts e outputs do WW3/icon13 grade glo_icon13 data: 2019082700

cp: cannot stat '/data1/ww3desenv/home/mod_ondas/work/restart001.glo_icon13': No such file or directory
cp: cannot stat '/data1/ww3desenv/home/mod_ondas/work/restart002.glo_icon13': No such file or directory
cp: cannot stat '/data1/ww3desenv/home/mod_ondas/work/restart003.glo_icon13': No such file or directory
cp: cannot stat '/data1/ww3desenv/home/mod_ondas/work/restart004.glo_icon13': No such file or directory
cp: cannot stat '/data1/ww3desenv/home/mod_ondas/work/out_grd.glo_icon13': No such file or directory
cp: cannot stat '/data1/ww3desenv/home/mod_ondas/work/log.glo_icon13': No such file or directory
cp: cannot stat '/data1/ww3desenv/home/mod_ondas/work/restart001.met5_icon1': No such file or directory
cp: cannot stat '/data1/ww3desenv/home/mod_ondas/work/restart002.met5_icon1': No such file or directory
cp: cannot stat '/data1/ww3desenv/home/mod_ondas/work/restart003.met5_icon1': No such file or directory
cp: cannot stat '/data1/ww3desenv/home/mod_ondas/work/restart004.met5_icon1': No such file or directory

 Copiando restarts e outputs do WW3/icon13 grade met5_icon13 data: 2019082700

cp: cannot stat '/data1/ww3desenv/home/mod_ondas/work/out_grd.met5_icon13': No such file or directory
cp: cannot stat '/data1/ww3desenv/home/mod_ondas/work/log.met5_icon13': No such file or directory

 Copiando restarts e outputs do WW3/icon13 grade ant5_icon13 data: 2019082700

cp: cannot stat '/data1/ww3desenv/home/mod_ondas/work/restart001.ant5_icon13': No such file or directory
cp: cannot stat '/data1/ww3desenv/home/mod_ondas/work/restart002.ant5_icon13': No such file or directory
cp: cannot stat '/data1/ww3desenv/home/mod_ondas/work/restart003.ant5_icon13': No such file or directory
cp: cannot stat '/data1/ww3desenv/home/mod_ondas/work/restart004.ant5_icon13': No such file or directory
cp: cannot stat '/data1/ww3desenv/home/mod_ondas/work/out_grd.ant5_icon13': No such file or directory
cp: cannot stat '/data1/ww3desenv/home/mod_ondas/work/log.ant5_icon13': No such file or directory
cp: cannot stat '/data1/ww3desenv/home/mod_ondas/work/nest.met5_icon13': No such file or directory
cp: cannot stat '/data1/ww3desenv/home/mod_ondas/work/nest.ant5_icon13': No such file or directory
cp: cannot stat '/data1/ww3desenv/home/mod_ondas/work/log.*': No such file or directory
cp: cannot stat '/data1/ww3desenv/home/mod_ondas/work/out_pnt.points': No such file or directory
 --------------------------------------------------------------------------------- 
                   ww3_ounf: saídas binárias do WW3 para NETCDF                    
 --------------------------------------------------------------------------------- 
 
 Linkando mod.def da área:  met5_icon13
 
 
 Executando ww3_ounf área:  met5_icon13  2019082700
 

                  *** WAVEWATCH III Field output postp. ***   
               ===============================================

  Grid name : MET 5m                        


 *** WAVEWATCH III ERROR IN W3IOGO : 
     ERROR IN OPENING FILE
     IOSTAT =   29

 
 Movendo as saídas em netcdf para a pasta Backup 
 
cdo mergetime: Open failed on >met5_icon1320190827.nc<
No such file or directory

ncks: ERROR file /data1/ww3desenv/home/mod_ondas/work/ww3icon13_met5_icon13_2019082700.nc not found. It does not exist on the local filesystem, nor does it match remote filename patterns (e.g., http://foo or foo.bar.edu:file).
ncks: HINT file-not-found errors usually arise from filename typos, incorrect paths, missing files, or capricious gods. Please verify spelling and location of requested file. If the file resides on a High Performance Storage System (HPSS) accessible via the 'hsi' command, then add the --hpss option and re-try command.
 
 Linkando mod.def da área:  ant5_icon13
 
 
 Executando ww3_ounf área:  ant5_icon13  2019082700
 

                  *** WAVEWATCH III Field output postp. ***   
               ===============================================

  Grid name : ANT 5m                        


 *** WAVEWATCH III ERROR IN W3IOGO : 
     ERROR IN OPENING FILE
     IOSTAT =   29

 
 Movendo as saídas em netcdf para a pasta Backup 
 
cdo mergetime: Open failed on >ant5_icon1320190827.nc<
No such file or directory

ncks: ERROR file /data1/ww3desenv/home/mod_ondas/work/ww3icon13_ant5_icon13_2019082700.nc not found. It does not exist on the local filesystem, nor does it match remote filename patterns (e.g., http://foo or foo.bar.edu:file).
ncks: HINT file-not-found errors usually arise from filename typos, incorrect paths, missing files, or capricious gods. Please verify spelling and location of requested file. If the file resides on a High Performance Storage System (HPSS) accessible via the 'hsi' command, then add the --hpss option and re-try command.
mv: cannot stat '/data1/ww3desenv/home/mod_ondas/output/ww3icon13/20190827/out_pnt.t00z.points': No such file or directory
 
 Aguardando Forçante de Vento chegar... sleep: 4
 
