 Rodada 20190815 00
 
 Iniciando a rodada do WW3gfs Data e HH: 2019081500
 
 
 Linkando mod.def da área:  glo_gfs
 

 Linkando e restart da área:  glo_gfs

 
 Linkando mod.def da área:  met5_gfs
 

 Linkando e restart da área:  met5_gfs

 
 Linkando mod.def da área:  ant5_gfs
 

 Linkando e restart da área:  ant5_gfs

 
 Linkando os mod.def do vento, points, ice e dados de entrada 
 

 Linkando vento gfs 20190815 00


 Não há gelo para a data: 20190814


 Não há gelo para a data: 20190813


 Linkando gelo para a data: 20190812


 Iniciando Execução WW3/gfs data: 2019081500


                    *** WAVEWATCH III Multi-grid shell ***    
               =================================================

 ========== STARTING MWW3 INITIALIZATION (WMINIT) =============================

  Opening input file ww3_multi.inp (unit number  8)
  Opening output file log.mww3 (unit number  9)

  Comment character : '$'

  Number of grids          :  3
  Input data grids         :  2
  Single point output file : YES/--

  Output server type       :  1
  Single point output proc : YES/--
       Unified point output [points]
          Initializing grids ...

  Input grid information : 
  nr extension  lev.   cur.   wind   ice    data
 -------------------------------------------------
   1 gfs        ---    ---     X     ---    - - -
   2 ice        ---    ---    ---     X     - - -
 -------------------------------------------------

  Grid for point output : 
  nr extension  
 ---------------
     points    
 ---------------

  Wave grid information : 
  nr extension  lev.   cur.   wind   ice    data   move1 rnk grp dmp
 --------------------------------------------------------------------
   1 glo_gfs    ---    ---    gfs    ice    - - -  no     1   1   -
   2 met5_gfs   ---    ---    gfs    ---    - - -  no     2   2   y
   3 ant5_gfs   ---    ---    gfs    ice    - - -  no     3   3   y
 --------------------------------------------------------------------

  Group information : 
  nr   grids (part of comm.)
 --------------------------------------------------------------------
   1    1 (0.0000-1.0000)
   2    2 (0.0000-1.0000)
   3    3 (0.0000-1.0000)
 --------------------------------------------------------------------


  Time interval : 
 --------------------------------------------------
       Starting time : 2019/08/15 00:00:00 UTC
       Ending time   : 2019/08/20 00:00:00 UTC


  Model settings : 
 --------------------------------------------------
       Masking computation in nesting : ---/NO
       Masking output in nesting      : ---/NO


  Output requests : (ALL GRIDS) 
 ==================================================

       Type 1 : Fields of mean wave parameters
      -----------------------------------------
            From     : 2019/08/15 00:00:00 UTC
            To       : 2019/08/20 00:00:00 UTC
            Interval :             1:00:00

            Fields   : Wind speed          
                       Ice concentration   
                       Wave height         
                       Mean wave period(+2)
                       Mean wave period(-1)
                       Mean wave period(+1)
                       Peak frequency      
                       Mean wave dir. a1b1 
                       Mean dir. spr. a1b1 
                       Peak direction      
                       Part. wave height   
                       Part. peak period   
                       Part. mean direction

       Type 2 : Point output                  
      -----------------------------------------
            From     : 2019/08/15 00:00:00 UTC
            To       : 2019/08/20 00:00:00 UTC
            Interval :             1:00:00

            Point  1 :  -0.400587E+02 -0.213393E+02  ANCHIETA     
                   2 :  -0.428398E+02 -0.255438E+02  ANGRA_REIS   
                   3 :  -0.407253E+02 -0.229524E+02  CAMPOS_GOY   
                   4 :  -0.399535E+02 -0.212382E+02  CAPIXABA     
                   5 :  -0.434663E+02 -0.255177E+02  CARAGUATAT   
                   6 :  -0.404251E+02 -0.226484E+02  FLUMINENSE   
                   7 :  -0.398558E+02 -0.218831E+02  FRADE        
                   8 :  -0.432060E+02 -0.256719E+02  ILHABELA     
                   9 :  -0.429442E+02 -0.251399E+02  ITAGUAI      
                  10 :  -0.465283E+02 -0.264658E+02  ITAJAI       
                  11 :  -0.428785E+02 -0.252029E+02  MANGARATIB   
                  12 :  -0.427530E+02 -0.254478E+02  MARICA       
                  13 :  -0.399368E+02 -0.224958E+02  NITEROI      
                  14 :  -0.427613E+02 -0.253935E+02  PARATY       
                  15 :  -0.422329E+02 -0.246603E+02  PIONEIRO     
                  16 :  -0.369882E+02 -0.113700E+02  PIRANEMA     
                  17 :  -0.403584E+02 -0.228583E+02  RIO_JANEIR   
                  18 :  -0.427142E+02 -0.243010E+02  SANTOS       
                  19 :  -0.432627E+02 -0.257983E+02  SAO_PAULO    
                  20 :  -0.440668E+02 -0.234419E+02  SAO_VICENT   
                  21 :  -0.427811E+02 -0.254902E+02  SAQUAREMA    
                  22 :  -0.395248E+02 -0.200421E+02  VITORIA      
                  23 :  -0.401448E+02 -0.221600E+02  MACAE        
                  24 :  -0.406836E+02 -0.227596E+02  P07          
                  25 :  -0.405464E+02 -0.226728E+02  P08          
                  26 :  -0.405275E+02 -0.225735E+02  P09          
                  27 :  -0.408165E+02 -0.227600E+02  P12          
                  28 :  -0.406043E+02 -0.226789E+02  P15          
                  29 :  -0.400286E+02 -0.224282E+02  P18          
                  30 :  -0.400544E+02 -0.223926E+02  P19          
                  31 :  -0.400887E+02 -0.223589E+02  P20          
                  32 :  -0.399167E+02 -0.221096E+02  P25          
                  33 :  -0.400287E+02 -0.224684E+02  P26          
                  34 :  -0.399678E+02 -0.221324E+02  P31          
                  35 :  -0.402429E+02 -0.223478E+02  P32          
                  36 :  -0.400238E+02 -0.223743E+02  P33          
                  37 :  -0.400677E+02 -0.224394E+02  P35          
                  38 :  -0.400929E+02 -0.224858E+02  P37          
                  39 :  -0.401186E+02 -0.225604E+02  P38          
                  40 :  -0.400674E+02 -0.225469E+02  P40          
                  41 :  -0.402597E+02 -0.225502E+02  P43          
                  42 :  -0.401939E+02 -0.223456E+02  P47          
                  43 :  -0.402396E+02 -0.226631E+02  P48          
                  44 :  -0.398274E+02 -0.220852E+02  P50          
                  45 :  -0.400935E+02 -0.226340E+02  P51          
                  46 :  -0.397360E+02 -0.219064E+02  P52          
                  47 :  -0.399599E+02 -0.224231E+02  P53          
                  48 :  -0.398246E+02 -0.219682E+02  P54          
                  49 :  -0.397393E+02 -0.219932E+02  P55          
                  50 :  -0.399897E+02 -0.226236E+02  P56          
                  51 :  -0.400476E+02 -0.212392E+02  P57          
                  52 :  -0.399973E+02 -0.212140E+02  P58          
                  53 :  -0.410610E+02 -0.235161E+02  P61          
                  54 :  -0.397854E+02 -0.219398E+02  P62          
                  55 :  -0.410640E+02 -0.235130E+02  P63          
                  56 :  -0.406770E+02 -0.227017E+02  P65          
                  57 :  -0.428205E+02 -0.256018E+02  P66          
                  58 :  -0.426923E+02 -0.253287E+02  P67          
                  59 :  -0.428588E+02 -0.256569E+02  P69          
                  60 :  -0.425144E+02 -0.246487E+02  P74          
                  61 :  -0.425097E+02 -0.247879E+02  P75          
                  62 :  -0.425057E+02 -0.246876E+02  P76          
                  63 :  -0.424114E+02 -0.246354E+02  P77          
                  64 :  -0.443828E+02 -0.243532E+02  PMXL1        
                  65 :  -0.452528E+02 -0.252669E+02  PMLZ1        
                  66 :  -0.401218E+02 -0.221712E+02  PRA1         
                  67 :  -0.403299E+02 -0.222556E+02  PPG1A        
                  68 :  -0.404688E+02 -0.224660E+02  PCH2         
                  69 :  -0.406932E+02 -0.227084E+02  PCE1         
                  70 :  -0.392540E+02 -0.195645E+02  PPER1        
                  71 :  -0.388124E+02 -0.134899E+02  PMNT1        
                  72 :  -0.370796E+02 -0.112023E+02  PGA7         
                  73 :  -0.369485E+02 -0.109871E+02  PCM9         
                  74 :  -0.362595E+02 -0.490710E+01  PAG1         
                  75 :  -0.368257E+02 -0.470467E+01  PPE1A        
                  76 :  -0.427556E+02 -0.249264E+02  BBUZIOS      
                  77 :  -0.419939E+02 -0.245761E+02  BLIBRA       
                  78 :  -0.501300E+02  0.313000E+01  OIAPOQUE     
                  79 :  -0.490200E+02  0.800000E-01  FOZ_AMAZON   
                  80 :  -0.293500E+02  0.910000E+00  SPED_SPAUL   
                  81 :  -0.349600E+02  0.200000E-01  PIRATA_1     
                  82 :  -0.470700E+02 -0.700000E-01  SALINOPOLI   
                  83 :  -0.437700E+02 -0.105000E+01  SAO_LUIZ     
                  84 :  -0.380700E+02 -0.307000E+01  FORTALEZA    
                  85 :  -0.324200E+02 -0.385000E+01  F_NORONHA    
                  86 :  -0.351900E+02 -0.509000E+01  TOUROS       
                  87 :  -0.349000E+02 -0.575000E+01  NATAL        
                  88 :  -0.345800E+02 -0.697000E+01  CABEDELO     
                  89 :  -0.304900E+02 -0.791000E+01  PIRATA_2     
                  90 :  -0.346300E+02 -0.805000E+01  RECIFE       
                  91 :  -0.345600E+02 -0.816000E+01  PNBOIA_REC   
                  92 :  -0.348500E+02 -0.875000E+01  TAMANDARE    
                  93 :  -0.354000E+02 -0.965000E+01  MACEIO       
                  94 :  -0.365700E+02 -0.109000E+02  ARACAJU      
                  95 :  -0.368700E+02 -0.108600E+02  ARACAJU2     
                  96 :  -0.384500E+02 -0.134300E+02  SALVADOR     
                  97 :  -0.326100E+02 -0.135600E+02  PIRATA_3     
                  98 :  -0.387000E+02 -0.147800E+02  ILHEUS       
                  99 :  -0.387500E+02 -0.164500E+02  PORTO_SEGU   
                 100 :  -0.379300E+02 -0.159900E+02  PNBOIA_P_S   
                 101 :  -0.387000E+02 -0.179500E+02  ABROLHOS     
                 102 :  -0.346900E+02 -0.189200E+02  PIRATA_4     
                 103 :  -0.398300E+02 -0.203200E+02  VITORIA      
                 104 :  -0.402400E+02 -0.210800E+02  MARATAIZES   
                 105 :  -0.404400E+02 -0.224400E+02  SAO_TOME     
                 106 :  -0.418000E+02 -0.229700E+02  CABO_FRIO    
                 107 :  -0.293200E+02 -0.205000E+02  TRINDADE     
                 108 :  -0.430300E+02 -0.230800E+02  RIO_JANEIR   
                 109 :  -0.440000E+02 -0.237700E+02  ILHAGRANDE   
                 110 :  -0.447100E+02 -0.242700E+02  SAO_SEBAST   
                 111 :  -0.459100E+02 -0.243800E+02  SANTOS       
                 112 :  -0.463400E+02 -0.243100E+02  PERUIBE      
                 113 :  -0.470800E+02 -0.250200E+02  IGUAPE       
                 114 :  -0.474000E+02 -0.252300E+02  CANANEIA     
                 115 :  -0.449300E+02 -0.252800E+02  PNBOIA_STS   
                 116 :  -0.478700E+02 -0.257000E+02  ILHA_MEL     
                 117 :  -0.481200E+02 -0.258700E+02  GUARATUBA    
                 118 :  -0.482000E+02 -0.262300E+02  S_FRAN_SUL   
                 119 :  -0.480800E+02 -0.269200E+02  ITAJAI       
                 120 :  -0.479700E+02 -0.275500E+02  FLORIPA      
                 121 :  -0.472600E+02 -0.274000E+02  PNBOIA_SC    
                 122 :  -0.482500E+02 -0.280300E+02  GAROPABA     
                 123 :  -0.484400E+02 -0.286400E+02  STA_MARTA    
                 124 :  -0.488700E+02 -0.288500E+02  BAL_RINCAO   
                 125 :  -0.493700E+02 -0.293500E+02  TORRES       
                 126 :  -0.496800E+02 -0.300100E+02  TRAMANDAI    
                 127 :  -0.498800E+02 -0.315900E+02  PNBOIA_RG    
                 128 :  -0.503500E+02 -0.311500E+02  MOSTARDAS    
                 129 :  -0.517000E+02 -0.321800E+02  RIO_GRANDE   
                 130 :  -0.524700E+02 -0.338100E+02  CHUI         
                 131 :  -0.439500E+02 -0.232800E+02  LHFC_W       
                 132 :  -0.436000E+02 -0.232300E+02  LHFC_E       
                 133 :  -0.409700E+02 -0.209700E+02  ITAOCA_ES    
                 134 :  -0.402600E+02 -0.214900E+02  B_ITAOCA     
                 135 :  -0.472600E+02 -0.274100E+02  B_ITAJAISC   
                 136 :  -0.498400E+02 -0.315600E+02  B_RGRANDE3   
                 137 :  -0.450400E+02 -0.254400E+02  B_SANTOS_2   
                 138 :  -0.422000E+02 -0.236300E+02  B_CBFRIO23   
                 139 :  -0.434186E+02 -0.231660E+02  AD-BGW1      
                 140 :  -0.433549E+02 -0.232421E+02  AD-BGW2      
                 141 :  -0.432679E+02 -0.232989E+02  AD-BGW2      
                 142 :  -0.431674E+02 -0.233252E+02  AD-BGW3      
                 143 :  -0.430635E+02 -0.233202E+02  AD-BGC       
                 144 :  -0.429659E+02 -0.232842E+02  AD-BGE3      
                 145 :  -0.428852E+02 -0.232184E+02  AD-BGE2      
                 146 :  -0.428162E+02 -0.230987E+02  AD-BGE1      
                 147 :  -0.445461E+02 -0.237071E+02  AD-SIGW1     
                 148 :  -0.444441E+02 -0.237624E+02  AD-SIGW2     
                 149 :  -0.442572E+02 -0.238138E+02  AD-SIGW3     
                 150 :  -0.439255E+02 -0.237823E+02  AD-SIGC      
                 151 :  -0.437103E+02 -0.236658E+02  AD-SIGE3     
                 152 :  -0.435657E+02 -0.235512E+02  AD-SIGE2     
                 153 :  -0.434438E+02 -0.234019E+02  AD-SIGE1     
                 154 :  -0.433647E+02 -0.232664E+02  AD-SIGE0     
                 155 :  -0.457608E+02 -0.242458E+02  AD-SSIBW1    
                 156 :  -0.456297E+02 -0.243175E+02  AD-SSIBW2    
                 157 :  -0.454701E+02 -0.243539E+02  AD-SSIBW3    
                 158 :  -0.452284E+02 -0.243347E+02  AD-SSIBC     
                 159 :  -0.450093E+02 -0.242241E+02  AD-SSIBE3    
                 160 :  -0.448927E+02 -0.240407E+02  AD-SSIBE2    
                 161 :  -0.448498E+02 -0.238518E+02  AD-SSIBE1    
                 162 :  -0.448624E+02 -0.236414E+02  AD-SSIBE0    
                 163 :  -0.448624E+02 -0.236414E+02  AD-SSIBE0    

       Type 4 : Restart files                 
      -----------------------------------------
            From     : 2019/08/15 00:00:00 UTC
            To       : 2019/08/17 00:00:00 UTC
            Interval :             6:00:00


       Type 5 : Nesting data                  
      -----------------------------------------
            From     : 2019/08/15 00:00:00 UTC
            To       : 2019/08/20 00:00:00 UTC
            Interval :             1:00:00



  Assigning resources : 
 --------------------------------------------------
       No (other) dedicated output processes.

       grid           comp.      grd    pnt    trk    rst    bpt    prt
      -------------------------------------------------------------------
       glo_gfs     00001-00132  00131  00130  -----  00132  00129  -----
       met5_gfs    00001-00132  00131  00130  -----  00132  00129  -----
       ant5_gfs    00001-00132  00131  00130  -----  00132  00129  -----
      -------------------------------------------------------------------
         Unified point output at 00130
 


  Initializations :
 --------------------------------------------------
       Model number  1 [glo_gfs]
          Initializing wave model ...

 *** WAVEWATCH III ERROR IN W3IORS :
     CONFLICTING TIMES: FILE :   20190814  060000
                       MODEL :   20190815  000000

 w3servmd MPI_ABORT, IEXIT=          20
 w3servmd UNIT missing
 w3servmd MSG missing
 w3servmd FILE missing
 w3servmd LINE missing
 w3servmd COMM missing
 w3servmd MPI_ABORT, IEXIT=          20
 w3servmd UNIT missing
 w3servmd MSG missing
 w3servmd FILE missing
 w3servmd LINE missing
 w3servmd COMM missing
 w3servmd MPI_ABORT, IEXIT=          20
 w3servmd UNIT missing
 w3servmd MSG missing
 w3servmd FILE missing
 w3servmd LINE missing
 w3servmd COMM missing
 w3servmd MPI_ABORT, IEXIT=          20
 w3servmd UNIT missing
 w3servmd MSG missing
 w3servmd FILE missing
 w3servmd LINE missing
 w3servmd COMM missing
 w3servmd MPI_ABORT, IEXIT=          20
 w3servmd UNIT missing
 w3servmd MSG missing
 w3servmd FILE missing
 w3servmd LINE missing
 w3servmd COMM missing
 w3servmd MPI_ABORT, IEXIT=          20
 w3servmd UNIT missing
 w3servmd MSG missing
 w3servmd FILE missing
 w3servmd LINE missing
 w3servmd COMM missing
 w3servmd MPI_ABORT, IEXIT=          20
 w3servmd UNIT missing
 w3servmd MSG missing
 w3servmd FILE missing
 w3servmd LINE missing
 w3servmd COMM missing
 w3servmd MPI_ABORT, IEXIT=          20
 w3servmd UNIT missing
 w3servmd MSG missing
 w3servmd FILE missing
 w3servmd LINE missing
 w3servmd COMM missing
 w3servmd MPI_ABORT, IEXIT=          20
 w3servmd UNIT missing
 w3servmd MSG missing
 w3servmd FILE missing
 w3servmd LINE missing
 w3servmd COMM missing
 w3servmd MPI_ABORT, IEXIT=          20
 w3servmd UNIT missing
 w3servmd MSG missing
 w3servmd FILE missing
 w3servmd LINE missing
 w3servmd COMM missing
 w3servmd MPI_ABORT, IEXIT=          20
 w3servmd UNIT missing
 w3servmd MSG missing
 w3servmd FILE missing
 w3servmd LINE missing
 w3servmd COMM missing
 w3servmd MPI_ABORT, IEXIT=          20
 w3servmd UNIT missing
 w3servmd MSG missing
 w3servmd FILE missing
 w3servmd LINE missing
 w3servmd COMM missing
 w3servmd MPI_ABORT, IEXIT=          20
 w3servmd UNIT missing
 w3servmd MSG missing
 w3servmd FILE missing
 w3servmd LINE missing
 w3servmd COMM missing
 w3servmd MPI_ABORT, IEXIT=          20
 w3servmd UNIT missing
 w3servmd MSG missing
 w3servmd FILE missing
 w3servmd LINE missing
 w3servmd COMM missing
 w3servmd MPI_ABORT, IEXIT=          20
 w3servmd UNIT missing
 w3servmd MSG missing
 w3servmd FILE missing
 w3servmd LINE missing
 w3servmd COMM missing
 w3servmd MPI_ABORT, IEXIT=          20
 w3servmd UNIT missing
 w3servmd MSG missing
 w3servmd FILE missing
 w3servmd LINE missing
 w3servmd COMM missing
 w3servmd MPI_ABORT, IEXIT=          20
 w3servmd UNIT missing
 w3servmd MSG missing
 w3servmd FILE missing
 w3servmd LINE missing
 w3servmd COMM missing
 w3servmd MPI_ABORT, IEXIT=          20
 w3servmd UNIT missing
 w3servmd MSG missing
 w3servmd FILE missing
 w3servmd LINE missing
 w3servmd COMM missing
 w3servmd MPI_ABORT, IEXIT=          20
 w3servmd UNIT missing
 w3servmd MSG missing
 w3servmd FILE missing
 w3servmd LINE missing
 w3servmd COMM missing
 w3servmd MPI_ABORT, IEXIT=          20
 w3servmd UNIT missing
 w3servmd MSG missing
 w3servmd FILE missing
 w3servmd LINE missing
 w3servmd COMM missing
 w3servmd MPI_ABORT, IEXIT=          20
 w3servmd UNIT missing
 w3servmd MSG missing
 w3servmd FILE missing
 w3servmd LINE missing
 w3servmd COMM missing
 w3servmd MPI_ABORT, IEXIT=          20
 w3servmd UNIT missing
 w3servmd MSG missing
 w3servmd FILE missing
 w3servmd LINE missing
 w3servmd COMM missing
 w3servmd MPI_ABORT, IEXIT=          20
 w3servmd UNIT missing
 w3servmd MSG missing
 w3servmd FILE missing
 w3servmd LINE missing
 w3servmd COMM missing
 w3servmd MPI_ABORT, IEXIT=          20
 w3servmd UNIT missing
 w3servmd MSG missing
 w3servmd FILE missing
 w3servmd LINE missing
 w3servmd COMM missing
 w3servmd MPI_ABORT, IEXIT=          20
 w3servmd UNIT missing
 w3servmd MSG missing
 w3servmd FILE missing
 w3servmd LINE missing
 w3servmd COMM missing
 w3servmd MPI_ABORT, IEXIT=          20
 w3servmd UNIT missing
 w3servmd MSG missing
 w3servmd FILE missing
 w3servmd LINE missing
 w3servmd COMM missing
 w3servmd MPI_ABORT, IEXIT=          20
 w3servmd UNIT missing
 w3servmd MSG missing
 w3servmd FILE missing
 w3servmd LINE missing
 w3servmd COMM missing
 w3servmd MPI_ABORT, IEXIT=          20
 w3servmd UNIT missing
 w3servmd MSG missing
 w3servmd FILE missing
 w3servmd LINE missing
 w3servmd COMM missing
 w3servmd MPI_ABORT, IEXIT=          20
 w3servmd UNIT missing
 w3servmd MSG missing
 w3servmd FILE missing
 w3servmd LINE missing
 w3servmd COMM missing
 w3servmd MPI_ABORT, IEXIT=          20
 w3servmd UNIT missing
 w3servmd MSG missing
 w3servmd FILE missing
 w3servmd LINE missing
 w3servmd COMM missing
 w3servmd MPI_ABORT, IEXIT=          20
 w3servmd UNIT missing
 w3servmd MSG missing
 w3servmd FILE missing
 w3servmd LINE missing
 w3servmd COMM missing
 w3servmd MPI_ABORT, IEXIT=          20
 w3servmd UNIT missing
 w3servmd MSG missing
 w3servmd FILE missing
 w3servmd LINE missing
 w3servmd COMM missing
 w3servmd MPI_ABORT, IEXIT=          20
 w3servmd UNIT missing
 w3servmd MSG missing
 w3servmd FILE missing
 w3servmd LINE missing
 w3servmd COMM missing
 w3servmd MPI_ABORT, IEXIT=          20
 w3servmd UNIT missing
 w3servmd MSG missing
 w3servmd FILE missing
 w3servmd LINE missing
 w3servmd COMM missing
 w3servmd MPI_ABORT, IEXIT=          20
 w3servmd UNIT missing
 w3servmd MSG missing
 w3servmd FILE missing
 w3servmd LINE missing
 w3servmd COMM missing
 w3servmd MPI_ABORT, IEXIT=          20
 w3servmd UNIT missing
 w3servmd MSG missing
 w3servmd FILE missing
 w3servmd LINE missing
 w3servmd COMM missing
 w3servmd MPI_ABORT, IEXIT=          20
 w3servmd UNIT missing
 w3servmd MSG missing
 w3servmd FILE missing
 w3servmd LINE missing
 w3servmd COMM missing
 w3servmd MPI_ABORT, IEXIT=          20
 w3servmd UNIT missing
 w3servmd MSG missing
 w3servmd FILE missing
 w3servmd LINE missing
 w3servmd COMM missing
 w3servmd MPI_ABORT, IEXIT=          20
 w3servmd UNIT missing
 w3servmd MSG missing
 w3servmd FILE missing
 w3servmd LINE missing
 w3servmd COMM missing
 w3servmd MPI_ABORT, IEXIT=          20
 w3servmd UNIT missing
 w3servmd MSG missing
 w3servmd FILE missing
 w3servmd LINE missing
 w3servmd COMM missing
 w3servmd MPI_ABORT, IEXIT=          20
 w3servmd UNIT missing
 w3servmd MSG missing
 w3servmd FILE missing
 w3servmd LINE missing
 w3servmd COMM missing
 w3servmd MPI_ABORT, IEXIT=          20
 w3servmd UNIT missing
 w3servmd MSG missing
 w3servmd FILE missing
 w3servmd LINE missing
 w3servmd COMM missing
 w3servmd MPI_ABORT, IEXIT=          20
 w3servmd UNIT missing
 w3servmd MSG missing
 w3servmd FILE missing
 w3servmd LINE missing
 w3servmd COMM missing
 w3servmd MPI_ABORT, IEXIT=          20
 w3servmd UNIT missing
 w3servmd MSG missing
 w3servmd FILE missing
 w3servmd LINE missing
 w3servmd COMM missing
 w3servmd MPI_ABORT, IEXIT=          20
 w3servmd UNIT missing
 w3servmd MSG missing
 w3servmd FILE missing
 w3servmd LINE missing
 w3servmd COMM missing
 w3servmd MPI_ABORT, IEXIT=          20
 w3servmd UNIT missing
 w3servmd MSG missing
 w3servmd FILE missing
 w3servmd LINE missing
 w3servmd COMM missing
 w3servmd MPI_ABORT, IEXIT=          20
 w3servmd UNIT missing
 w3servmd MSG missing
 w3servmd FILE missing
 w3servmd LINE missing
 w3servmd COMM missing
 w3servmd MPI_ABORT, IEXIT=          20
 w3servmd UNIT missing
 w3servmd MSG missing
 w3servmd FILE missing
 w3servmd LINE missing
 w3servmd COMM missing
 w3servmd MPI_ABORT, IEXIT=          20
 w3servmd UNIT missing
 w3servmd MSG missing
 w3servmd FILE missing
 w3servmd LINE missing
 w3servmd COMM missing
 w3servmd MPI_ABORT, IEXIT=          20
 w3servmd UNIT missing
 w3servmd MSG missing
 w3servmd FILE missing
 w3servmd LINE missing
 w3servmd COMM missing
 w3servmd MPI_ABORT, IEXIT=          20
 w3servmd UNIT missing
 w3servmd MSG missing
 w3servmd FILE missing
 w3servmd LINE missing
 w3servmd COMM missing
 w3servmd MPI_ABORT, IEXIT=          20
 w3servmd UNIT missing
 w3servmd MSG missing
 w3servmd FILE missing
 w3servmd LINE missing
 w3servmd COMM missing
 w3servmd MPI_ABORT, IEXIT=          20
 w3servmd UNIT missing
 w3servmd MSG missing
 w3servmd FILE missing
 w3servmd LINE missing
 w3servmd COMM missing
 w3servmd MPI_ABORT, IEXIT=          20
 w3servmd UNIT missing
 w3servmd MSG missing
 w3servmd FILE missing
 w3servmd LINE missing
 w3servmd COMM missing
 w3servmd MPI_ABORT, IEXIT=          20
 w3servmd UNIT missing
 w3servmd MSG missing
 w3servmd FILE missing
 w3servmd LINE missing
 w3servmd COMM missing
 w3servmd MPI_ABORT, IEXIT=          20
 w3servmd UNIT missing
 w3servmd MSG missing
 w3servmd FILE missing
 w3servmd LINE missing
 w3servmd COMM missing
 w3servmd MPI_ABORT, IEXIT=          20
 w3servmd UNIT missing
 w3servmd MSG missing
 w3servmd FILE missing
 w3servmd LINE missing
 w3servmd COMM missing
 w3servmd MPI_ABORT, IEXIT=          20
 w3servmd UNIT missing
 w3servmd MSG missing
 w3servmd FILE missing
 w3servmd LINE missing
 w3servmd COMM missing
 w3servmd MPI_ABORT, IEXIT=          20
 w3servmd UNIT missing
 w3servmd MSG missing
 w3servmd FILE missing
 w3servmd LINE missing
 w3servmd COMM missing
 w3servmd MPI_ABORT, IEXIT=          20
 w3servmd UNIT missing
 w3servmd MSG missing
 w3servmd FILE missing
 w3servmd LINE missing
 w3servmd COMM missing
 w3servmd MPI_ABORT, IEXIT=          20
 w3servmd UNIT missing
 w3servmd MSG missing
 w3servmd FILE missing
 w3servmd LINE missing
 w3servmd COMM missing
 w3servmd MPI_ABORT, IEXIT=          20
 w3servmd UNIT missing
 w3servmd MSG missing
 w3servmd FILE missing
 w3servmd LINE missing
 w3servmd COMM missing
 w3servmd MPI_ABORT, IEXIT=          20
 w3servmd UNIT missing
 w3servmd MSG missing
 w3servmd FILE missing
 w3servmd LINE missing
 w3servmd COMM missing
 w3servmd MPI_ABORT, IEXIT=          20
 w3servmd UNIT missing
 w3servmd MSG missing
 w3servmd FILE missing
 w3servmd LINE missing
 w3servmd COMM missing
 w3servmd MPI_ABORT, IEXIT=          20
 w3servmd UNIT missing
 w3servmd MSG missing
 w3servmd FILE missing
 w3servmd LINE missing
 w3servmd COMM missing
 w3servmd MPI_ABORT, IEXIT=          20
 w3servmd UNIT missing
 w3servmd MSG missing
 w3servmd FILE missing
 w3servmd LINE missing
 w3servmd COMM missing
 w3servmd MPI_ABORT, IEXIT=          20
 w3servmd UNIT missing
 w3servmd MSG missing
 w3servmd FILE missing
 w3servmd LINE missing
 w3servmd COMM missing
 w3servmd MPI_ABORT, IEXIT=          20
 w3servmd UNIT missing
 w3servmd MSG missing
 w3servmd FILE missing
 w3servmd LINE missing
 w3servmd COMM missing
 w3servmd MPI_ABORT, IEXIT=          20
 w3servmd UNIT missing
 w3servmd MSG missing
 w3servmd FILE missing
 w3servmd LINE missing
 w3servmd COMM missing
 w3servmd MPI_ABORT, IEXIT=          20
 w3servmd UNIT missing
 w3servmd MSG missing
 w3servmd FILE missing
 w3servmd LINE missing
 w3servmd COMM missing
 w3servmd MPI_ABORT, IEXIT=          20
 w3servmd UNIT missing
 w3servmd MSG missing
 w3servmd FILE missing
 w3servmd LINE missing
 w3servmd COMM missing
 w3servmd MPI_ABORT, IEXIT=          20
 w3servmd UNIT missing
 w3servmd MSG missing
 w3servmd FILE missing
 w3servmd LINE missing
 w3servmd COMM missing
 w3servmd MPI_ABORT, IEXIT=          20
 w3servmd UNIT missing
 w3servmd MSG missing
 w3servmd FILE missing
 w3servmd LINE missing
 w3servmd COMM missing
 w3servmd MPI_ABORT, IEXIT=          20
 w3servmd UNIT missing
 w3servmd MSG missing
 w3servmd FILE missing
 w3servmd LINE missing
 w3servmd COMM missing
 w3servmd MPI_ABORT, IEXIT=          20
 w3servmd UNIT missing
 w3servmd MSG missing
 w3servmd FILE missing
 w3servmd LINE missing
 w3servmd COMM missing
 w3servmd MPI_ABORT, IEXIT=          20
 w3servmd UNIT missing
 w3servmd MSG missing
 w3servmd FILE missing
 w3servmd LINE missing
 w3servmd COMM missing
 w3servmd MPI_ABORT, IEXIT=          20
 w3servmd UNIT missing
 w3servmd MSG missing
 w3servmd FILE missing
 w3servmd LINE missing
 w3servmd COMM missing
 w3servmd MPI_ABORT, IEXIT=          20
 w3servmd UNIT missing
 w3servmd MSG missing
 w3servmd FILE missing
 w3servmd LINE missing
 w3servmd COMM missing
 w3servmd MPI_ABORT, IEXIT=          20
 w3servmd UNIT missing
 w3servmd MSG missing
 w3servmd FILE missing
 w3servmd LINE missing
 w3servmd COMM missing
 w3servmd MPI_ABORT, IEXIT=          20
 w3servmd UNIT missing
 w3servmd MSG missing
 w3servmd FILE missing
 w3servmd LINE missing
 w3servmd COMM missing
 w3servmd MPI_ABORT, IEXIT=          20
 w3servmd UNIT missing
 w3servmd MSG missing
 w3servmd FILE missing
 w3servmd LINE missing
 w3servmd COMM missing
 w3servmd MPI_ABORT, IEXIT=          20
 w3servmd UNIT missing
 w3servmd MSG missing
 w3servmd FILE missing
 w3servmd LINE missing
 w3servmd COMM missing
 w3servmd MPI_ABORT, IEXIT=          20
 w3servmd UNIT missing
 w3servmd MSG missing
 w3servmd FILE missing
 w3servmd LINE missing
 w3servmd COMM missing
 w3servmd MPI_ABORT, IEXIT=          20
 w3servmd UNIT missing
 w3servmd MSG missing
 w3servmd FILE missing
 w3servmd LINE missing
 w3servmd COMM missing
 w3servmd MPI_ABORT, IEXIT=          20
 w3servmd UNIT missing
 w3servmd MSG missing
 w3servmd FILE missing
 w3servmd LINE missing
 w3servmd COMM missing
 w3servmd MPI_ABORT, IEXIT=          20
 w3servmd UNIT missing
 w3servmd MSG missing
 w3servmd FILE missing
 w3servmd LINE missing
 w3servmd COMM missing
 w3servmd MPI_ABORT, IEXIT=          20
 w3servmd UNIT missing
 w3servmd MSG missing
 w3servmd FILE missing
 w3servmd LINE missing
 w3servmd COMM missing
 w3servmd MPI_ABORT, IEXIT=          20
 w3servmd UNIT missing
 w3servmd MSG missing
 w3servmd FILE missing
 w3servmd LINE missing
 w3servmd COMM missing
 w3servmd MPI_ABORT, IEXIT=          20
 w3servmd UNIT missing
 w3servmd MSG missing
 w3servmd FILE missing
 w3servmd LINE missing
 w3servmd COMM missing
 w3servmd MPI_ABORT, IEXIT=          20
 w3servmd UNIT missing
 w3servmd MSG missing
 w3servmd FILE missing
 w3servmd LINE missing
 w3servmd COMM missing
 w3servmd MPI_ABORT, IEXIT=          20
 w3servmd UNIT missing
 w3servmd MSG missing
 w3servmd FILE missing
 w3servmd LINE missing
 w3servmd COMM missing
 w3servmd MPI_ABORT, IEXIT=          20
 w3servmd UNIT missing
 w3servmd MSG missing
 w3servmd FILE missing
 w3servmd LINE missing
 w3servmd COMM missing
 w3servmd MPI_ABORT, IEXIT=          20
 w3servmd UNIT missing
 w3servmd MSG missing
 w3servmd FILE missing
 w3servmd LINE missing
 w3servmd COMM missing
 w3servmd MPI_ABORT, IEXIT=          20
 w3servmd UNIT missing
 w3servmd MSG missing
 w3servmd FILE missing
 w3servmd LINE missing
 w3servmd COMM missing
 w3servmd MPI_ABORT, IEXIT=          20
 w3servmd UNIT missing
 w3servmd MSG missing
 w3servmd FILE missing
 w3servmd LINE missing
 w3servmd COMM missing
 w3servmd MPI_ABORT, IEXIT=          20
 w3servmd UNIT missing
 w3servmd MSG missing
 w3servmd FILE missing
 w3servmd LINE missing
 w3servmd COMM missing
 w3servmd MPI_ABORT, IEXIT=          20
 w3servmd UNIT missing
 w3servmd MSG missing
 w3servmd FILE missing
 w3servmd LINE missing
 w3servmd COMM missing
 w3servmd MPI_ABORT, IEXIT=          20
 w3servmd UNIT missing
 w3servmd MSG missing
 w3servmd FILE missing
 w3servmd LINE missing
 w3servmd COMM missing
 w3servmd MPI_ABORT, IEXIT=          20
 w3servmd UNIT missing
 w3servmd MSG missing
 w3servmd FILE missing
 w3servmd LINE missing
 w3servmd COMM missing
 w3servmd MPI_ABORT, IEXIT=          20
 w3servmd UNIT missing
 w3servmd MSG missing
 w3servmd FILE missing
 w3servmd LINE missing
 w3servmd COMM missing
 w3servmd MPI_ABORT, IEXIT=          20
 w3servmd UNIT missing
 w3servmd MSG missing
 w3servmd FILE missing
 w3servmd LINE missing
 w3servmd COMM missing
 w3servmd MPI_ABORT, IEXIT=          20
 w3servmd UNIT missing
 w3servmd MSG missing
 w3servmd FILE missing
 w3servmd LINE missing
 w3servmd COMM missing
 w3servmd MPI_ABORT, IEXIT=          20
 w3servmd UNIT missing
 w3servmd MSG missing
 w3servmd FILE missing
 w3servmd LINE missing
 w3servmd COMM missing
 w3servmd MPI_ABORT, IEXIT=          20
 w3servmd UNIT missing
 w3servmd MSG missing
 w3servmd FILE missing
 w3servmd LINE missing
 w3servmd COMM missing
 w3servmd MPI_ABORT, IEXIT=          20
 w3servmd UNIT missing
 w3servmd MSG missing
 w3servmd FILE missing
 w3servmd LINE missing
 w3servmd COMM missing
 w3servmd MPI_ABORT, IEXIT=          20
 w3servmd UNIT missing
 w3servmd MSG missing
 w3servmd FILE missing
 w3servmd LINE missing
 w3servmd COMM missing
 w3servmd MPI_ABORT, IEXIT=          20
 w3servmd UNIT missing
 w3servmd MSG missing
 w3servmd FILE missing
 w3servmd LINE missing
 w3servmd COMM missing
 w3servmd MPI_ABORT, IEXIT=          20
 w3servmd UNIT missing
 w3servmd MSG missing
 w3servmd FILE missing
 w3servmd LINE missing
 w3servmd COMM missing
 w3servmd MPI_ABORT, IEXIT=          20
 w3servmd UNIT missing
 w3servmd MSG missing
 w3servmd FILE missing
 w3servmd LINE missing
 w3servmd COMM missing
 w3servmd MPI_ABORT, IEXIT=          20
 w3servmd UNIT missing
 w3servmd MSG missing
 w3servmd FILE missing
 w3servmd LINE missing
 w3servmd COMM missing
 w3servmd MPI_ABORT, IEXIT=          20
 w3servmd UNIT missing
 w3servmd MSG missing
 w3servmd FILE missing
 w3servmd LINE missing
 w3servmd COMM missing
 w3servmd MPI_ABORT, IEXIT=          20
 w3servmd UNIT missing
 w3servmd MSG missing
 w3servmd FILE missing
 w3servmd LINE missing
 w3servmd COMM missing
 w3servmd MPI_ABORT, IEXIT=          20
 w3servmd UNIT missing
 w3servmd MSG missing
 w3servmd FILE missing
 w3servmd LINE missing
 w3servmd COMM missing
 w3servmd MPI_ABORT, IEXIT=          20
 w3servmd UNIT missing
 w3servmd MSG missing
 w3servmd FILE missing
 w3servmd LINE missing
 w3servmd COMM missing
 w3servmd MPI_ABORT, IEXIT=          20
 w3servmd UNIT missing
 w3servmd MSG missing
 w3servmd FILE missing
 w3servmd LINE missing
 w3servmd COMM missing
 w3servmd MPI_ABORT, IEXIT=          20
 w3servmd UNIT missing
 w3servmd MSG missing
 w3servmd FILE missing
 w3servmd LINE missing
 w3servmd COMM missing
 w3servmd MPI_ABORT, IEXIT=          20
 w3servmd UNIT missing
 w3servmd MSG missing
 w3servmd FILE missing
 w3servmd LINE missing
 w3servmd COMM missing
 w3servmd MPI_ABORT, IEXIT=          20
 w3servmd UNIT missing
 w3servmd MSG missing
 w3servmd FILE missing
 w3servmd LINE missing
 w3servmd COMM missing
 w3servmd MPI_ABORT, IEXIT=          20
 w3servmd UNIT missing
 w3servmd MSG missing
 w3servmd FILE missing
 w3servmd LINE missing
 w3servmd COMM missing
 w3servmd MPI_ABORT, IEXIT=          20
 w3servmd UNIT missing
 w3servmd MSG missing
 w3servmd FILE missing
 w3servmd LINE missing
 w3servmd COMM missing
 w3servmd MPI_ABORT, IEXIT=          20
 w3servmd UNIT missing
 w3servmd MSG missing
 w3servmd FILE missing
 w3servmd LINE missing
 w3servmd COMM missing
 w3servmd MPI_ABORT, IEXIT=          20
 w3servmd UNIT missing
 w3servmd MSG missing
 w3servmd FILE missing
 w3servmd LINE missing
 w3servmd COMM missing
 w3servmd MPI_ABORT, IEXIT=          20
 w3servmd UNIT missing
 w3servmd MSG missing
 w3servmd FILE missing
 w3servmd LINE missing
 w3servmd COMM missing
 w3servmd MPI_ABORT, IEXIT=          20
 w3servmd UNIT missing
 w3servmd MSG missing
 w3servmd FILE missing
 w3servmd LINE missing
 w3servmd COMM missing
 w3servmd MPI_ABORT, IEXIT=          20
 w3servmd UNIT missing
 w3servmd MSG missing
 w3servmd FILE missing
 w3servmd LINE missing
 w3servmd COMM missing
 w3servmd MPI_ABORT, IEXIT=          20
 w3servmd UNIT missing
 w3servmd MSG missing
 w3servmd FILE missing
 w3servmd LINE missing
 w3servmd COMM missing
 w3servmd MPI_ABORT, IEXIT=          20
 w3servmd UNIT missing
 w3servmd MSG missing
 w3servmd FILE missing
 w3servmd LINE missing
 w3servmd COMM missing
 w3servmd MPI_ABORT, IEXIT=          20
 w3servmd UNIT missing
 w3servmd MSG missing
 w3servmd FILE missing
 w3servmd LINE missing
 w3servmd COMM missing
 w3servmd MPI_ABORT, IEXIT=          20
 w3servmd UNIT missing
 w3servmd MSG missing
 w3servmd FILE missing
 w3servmd LINE missing
 w3servmd COMM missing
 w3servmd MPI_ABORT, IEXIT=          20
 w3servmd UNIT missing
 w3servmd MSG missing
 w3servmd FILE missing
 w3servmd LINE missing
 w3servmd COMM missing
 w3servmd MPI_ABORT, IEXIT=          20
 w3servmd UNIT missing
 w3servmd MSG missing
 w3servmd FILE missing
 w3servmd LINE missing
 w3servmd COMM missing
 w3servmd MPI_ABORT, IEXIT=          20
 w3servmd UNIT missing
 w3servmd MSG missing
 w3servmd FILE missing
 w3servmd LINE missing
 w3servmd COMM missing

 Copiando os arquivos de output e restarts da rodada do WW3/gfs data: 2019081500


 Copiando restarts e outputs do WW3/gfs grade glo_gfs data: 2019081500


 Copiando restarts e outputs do WW3/gfs grade met5_gfs data: 2019081500


 Copiando restarts e outputs do WW3/gfs grade ant5_gfs data: 2019081500

 --------------------------------------------------------------------------------- 
                   ww3_ounf: saídas binárias do WW3 para NETCDF                    
 --------------------------------------------------------------------------------- 
 
 Linkando mod.def da área:  met5_gfs
 
 
 Executando ww3_ounf área:  met5_gfs  2019081500
 

                  *** WAVEWATCH III Field output postp. ***   
               ===============================================

  Grid name : MET 5m                        


 *** WAVEWATCH III ERROR IN W3IOGO : 
     ERROR IN OPENING FILE
     IOSTAT =   29

 
 Movendo as saídas em netcdf para a pasta Backup 
 

 
 Linkando mod.def da área:  ant5_gfs
 
 
 Executando ww3_ounf área:  ant5_gfs  2019081500
 

                  *** WAVEWATCH III Field output postp. ***   
               ===============================================

  Grid name : ANT 5m                        


 *** WAVEWATCH III ERROR IN W3IOGO : 
     ERROR IN OPENING FILE
     IOSTAT =   29

 
 Movendo as saídas em netcdf para a pasta Backup 
 

 
 Iniciando a rodada do WW3icon Data e HH: 2019081500
 
 
 Linkando mod.def da área:  glo_icon
 

 Linkando e restart da área:  glo_icon

 
 Linkando mod.def da área:  met5_icon
 

 Linkando e restart da área:  met5_icon

 
 Linkando mod.def da área:  ant5_icon
 

 Linkando e restart da área:  ant5_icon

 
 Linkando os mod.def do vento, points, ice e dados de entrada 
 

 Linkando vento icon 20190815 00


 Não há gelo para a data: 20190814


 Não há gelo para a data: 20190813


 Linkando gelo para a data: 20190812


 Iniciando Execução WW3/icon data: 2019081500


                    *** WAVEWATCH III Multi-grid shell ***    
               =================================================

 ========== STARTING MWW3 INITIALIZATION (WMINIT) =============================

  Opening input file ww3_multi.inp (unit number  8)
  Opening output file log.mww3 (unit number  9)

  Comment character : '$'

  Number of grids          :  3
  Input data grids         :  2
  Single point output file : YES/--

  Output server type       :  1
  Single point output proc : YES/--
       Unified point output [points]
          Initializing grids ...

  Input grid information : 
  nr extension  lev.   cur.   wind   ice    data
 -------------------------------------------------
   1 icon       ---    ---     X     ---    - - -
   2 ice        ---    ---    ---     X     - - -
 -------------------------------------------------

  Grid for point output : 
  nr extension  
 ---------------
     points    
 ---------------

  Wave grid information : 
  nr extension  lev.   cur.   wind   ice    data   move1 rnk grp dmp
 --------------------------------------------------------------------
   1 glo_icon   ---    ---    icon   ice    - - -  no     1   1   -
   2 met5_icon  ---    ---    icon   ---    - - -  no     2   2   y
   3 ant5_icon  ---    ---    icon   ice    - - -  no     3   3   y
 --------------------------------------------------------------------

  Group information : 
  nr   grids (part of comm.)
 --------------------------------------------------------------------
   1    1 (0.0000-1.0000)
   2    2 (0.0000-1.0000)
   3    3 (0.0000-1.0000)
 --------------------------------------------------------------------


  Time interval : 
 --------------------------------------------------
       Starting time : 2019/08/15 00:00:00 UTC
       Ending time   : 2019/08/20 00:00:00 UTC


  Model settings : 
 --------------------------------------------------
       Masking computation in nesting : ---/NO
       Masking output in nesting      : ---/NO


  Output requests : (ALL GRIDS) 
 ==================================================

       Type 1 : Fields of mean wave parameters
      -----------------------------------------
            From     : 2019/08/15 00:00:00 UTC
            To       : 2019/08/20 00:00:00 UTC
            Interval :             1:00:00

            Fields   : Wind speed          
                       Ice concentration   
                       Wave height         
                       Mean wave period(+2)
                       Mean wave period(-1)
                       Mean wave period(+1)
                       Peak frequency      
                       Mean wave dir. a1b1 
                       Mean dir. spr. a1b1 
                       Peak direction      
                       Part. wave height   
                       Part. peak period   
                       Part. mean direction

       Type 2 : Point output                  
      -----------------------------------------
            From     : 2019/08/15 00:00:00 UTC
            To       : 2019/08/20 00:00:00 UTC
            Interval :             1:00:00

            Point  1 :  -0.400587E+02 -0.213393E+02  ANCHIETA     
                   2 :  -0.428398E+02 -0.255438E+02  ANGRA_REIS   
                   3 :  -0.407253E+02 -0.229524E+02  CAMPOS_GOY   
                   4 :  -0.399535E+02 -0.212382E+02  CAPIXABA     
                   5 :  -0.434663E+02 -0.255177E+02  CARAGUATAT   
                   6 :  -0.404251E+02 -0.226484E+02  FLUMINENSE   
                   7 :  -0.398558E+02 -0.218831E+02  FRADE        
                   8 :  -0.432060E+02 -0.256719E+02  ILHABELA     
                   9 :  -0.429442E+02 -0.251399E+02  ITAGUAI      
                  10 :  -0.465283E+02 -0.264658E+02  ITAJAI       
                  11 :  -0.428785E+02 -0.252029E+02  MANGARATIB   
                  12 :  -0.427530E+02 -0.254478E+02  MARICA       
                  13 :  -0.399368E+02 -0.224958E+02  NITEROI      
                  14 :  -0.427613E+02 -0.253935E+02  PARATY       
                  15 :  -0.422329E+02 -0.246603E+02  PIONEIRO     
                  16 :  -0.369882E+02 -0.113700E+02  PIRANEMA     
                  17 :  -0.403584E+02 -0.228583E+02  RIO_JANEIR   
                  18 :  -0.427142E+02 -0.243010E+02  SANTOS       
                  19 :  -0.432627E+02 -0.257983E+02  SAO_PAULO    
                  20 :  -0.440668E+02 -0.234419E+02  SAO_VICENT   
                  21 :  -0.427811E+02 -0.254902E+02  SAQUAREMA    
                  22 :  -0.395248E+02 -0.200421E+02  VITORIA      
                  23 :  -0.401448E+02 -0.221600E+02  MACAE        
                  24 :  -0.406836E+02 -0.227596E+02  P07          
                  25 :  -0.405464E+02 -0.226728E+02  P08          
                  26 :  -0.405275E+02 -0.225735E+02  P09          
                  27 :  -0.408165E+02 -0.227600E+02  P12          
                  28 :  -0.406043E+02 -0.226789E+02  P15          
                  29 :  -0.400286E+02 -0.224282E+02  P18          
                  30 :  -0.400544E+02 -0.223926E+02  P19          
                  31 :  -0.400887E+02 -0.223589E+02  P20          
                  32 :  -0.399167E+02 -0.221096E+02  P25          
                  33 :  -0.400287E+02 -0.224684E+02  P26          
                  34 :  -0.399678E+02 -0.221324E+02  P31          
                  35 :  -0.402429E+02 -0.223478E+02  P32          
                  36 :  -0.400238E+02 -0.223743E+02  P33          
                  37 :  -0.400677E+02 -0.224394E+02  P35          
                  38 :  -0.400929E+02 -0.224858E+02  P37          
                  39 :  -0.401186E+02 -0.225604E+02  P38          
                  40 :  -0.400674E+02 -0.225469E+02  P40          
                  41 :  -0.402597E+02 -0.225502E+02  P43          
                  42 :  -0.401939E+02 -0.223456E+02  P47          
                  43 :  -0.402396E+02 -0.226631E+02  P48          
                  44 :  -0.398274E+02 -0.220852E+02  P50          
                  45 :  -0.400935E+02 -0.226340E+02  P51          
                  46 :  -0.397360E+02 -0.219064E+02  P52          
                  47 :  -0.399599E+02 -0.224231E+02  P53          
                  48 :  -0.398246E+02 -0.219682E+02  P54          
                  49 :  -0.397393E+02 -0.219932E+02  P55          
                  50 :  -0.399897E+02 -0.226236E+02  P56          
                  51 :  -0.400476E+02 -0.212392E+02  P57          
                  52 :  -0.399973E+02 -0.212140E+02  P58          
                  53 :  -0.410610E+02 -0.235161E+02  P61          
                  54 :  -0.397854E+02 -0.219398E+02  P62          
                  55 :  -0.410640E+02 -0.235130E+02  P63          
                  56 :  -0.406770E+02 -0.227017E+02  P65          
                  57 :  -0.428205E+02 -0.256018E+02  P66          
                  58 :  -0.426923E+02 -0.253287E+02  P67          
                  59 :  -0.428588E+02 -0.256569E+02  P69          
                  60 :  -0.425144E+02 -0.246487E+02  P74          
                  61 :  -0.425097E+02 -0.247879E+02  P75          
                  62 :  -0.425057E+02 -0.246876E+02  P76          
                  63 :  -0.424114E+02 -0.246354E+02  P77          
                  64 :  -0.443828E+02 -0.243532E+02  PMXL1        
                  65 :  -0.452528E+02 -0.252669E+02  PMLZ1        
                  66 :  -0.401218E+02 -0.221712E+02  PRA1         
                  67 :  -0.403299E+02 -0.222556E+02  PPG1A        
                  68 :  -0.404688E+02 -0.224660E+02  PCH2         
                  69 :  -0.406932E+02 -0.227084E+02  PCE1         
                  70 :  -0.392540E+02 -0.195645E+02  PPER1        
                  71 :  -0.388124E+02 -0.134899E+02  PMNT1        
                  72 :  -0.370796E+02 -0.112023E+02  PGA7         
                  73 :  -0.369485E+02 -0.109871E+02  PCM9         
                  74 :  -0.362595E+02 -0.490710E+01  PAG1         
                  75 :  -0.368257E+02 -0.470467E+01  PPE1A        
                  76 :  -0.427556E+02 -0.249264E+02  BBUZIOS      
                  77 :  -0.419939E+02 -0.245761E+02  BLIBRA       
                  78 :  -0.501300E+02  0.313000E+01  OIAPOQUE     
                  79 :  -0.490200E+02  0.800000E-01  FOZ_AMAZON   
                  80 :  -0.293500E+02  0.910000E+00  SPED_SPAUL   
                  81 :  -0.349600E+02  0.200000E-01  PIRATA_1     
                  82 :  -0.470700E+02 -0.700000E-01  SALINOPOLI   
                  83 :  -0.437700E+02 -0.105000E+01  SAO_LUIZ     
                  84 :  -0.380700E+02 -0.307000E+01  FORTALEZA    
                  85 :  -0.324200E+02 -0.385000E+01  F_NORONHA    
                  86 :  -0.351900E+02 -0.509000E+01  TOUROS       
                  87 :  -0.349000E+02 -0.575000E+01  NATAL        
                  88 :  -0.345800E+02 -0.697000E+01  CABEDELO     
                  89 :  -0.304900E+02 -0.791000E+01  PIRATA_2     
                  90 :  -0.346300E+02 -0.805000E+01  RECIFE       
                  91 :  -0.345600E+02 -0.816000E+01  PNBOIA_REC   
                  92 :  -0.348500E+02 -0.875000E+01  TAMANDARE    
                  93 :  -0.354000E+02 -0.965000E+01  MACEIO       
                  94 :  -0.365700E+02 -0.109000E+02  ARACAJU      
                  95 :  -0.368700E+02 -0.108600E+02  ARACAJU2     
                  96 :  -0.384500E+02 -0.134300E+02  SALVADOR     
                  97 :  -0.326100E+02 -0.135600E+02  PIRATA_3     
                  98 :  -0.387000E+02 -0.147800E+02  ILHEUS       
                  99 :  -0.387500E+02 -0.164500E+02  PORTO_SEGU   
                 100 :  -0.379300E+02 -0.159900E+02  PNBOIA_P_S   
                 101 :  -0.387000E+02 -0.179500E+02  ABROLHOS     
                 102 :  -0.346900E+02 -0.189200E+02  PIRATA_4     
                 103 :  -0.398300E+02 -0.203200E+02  VITORIA      
                 104 :  -0.402400E+02 -0.210800E+02  MARATAIZES   
                 105 :  -0.404400E+02 -0.224400E+02  SAO_TOME     
                 106 :  -0.418000E+02 -0.229700E+02  CABO_FRIO    
                 107 :  -0.293200E+02 -0.205000E+02  TRINDADE     
                 108 :  -0.430300E+02 -0.230800E+02  RIO_JANEIR   
                 109 :  -0.440000E+02 -0.237700E+02  ILHAGRANDE   
                 110 :  -0.447100E+02 -0.242700E+02  SAO_SEBAST   
                 111 :  -0.459100E+02 -0.243800E+02  SANTOS       
                 112 :  -0.463400E+02 -0.243100E+02  PERUIBE      
                 113 :  -0.470800E+02 -0.250200E+02  IGUAPE       
                 114 :  -0.474000E+02 -0.252300E+02  CANANEIA     
                 115 :  -0.449300E+02 -0.252800E+02  PNBOIA_STS   
                 116 :  -0.478700E+02 -0.257000E+02  ILHA_MEL     
                 117 :  -0.481200E+02 -0.258700E+02  GUARATUBA    
                 118 :  -0.482000E+02 -0.262300E+02  S_FRAN_SUL   
                 119 :  -0.480800E+02 -0.269200E+02  ITAJAI       
                 120 :  -0.479700E+02 -0.275500E+02  FLORIPA      
                 121 :  -0.472600E+02 -0.274000E+02  PNBOIA_SC    
                 122 :  -0.482500E+02 -0.280300E+02  GAROPABA     
                 123 :  -0.484400E+02 -0.286400E+02  STA_MARTA    
                 124 :  -0.488700E+02 -0.288500E+02  BAL_RINCAO   
                 125 :  -0.493700E+02 -0.293500E+02  TORRES       
                 126 :  -0.496800E+02 -0.300100E+02  TRAMANDAI    
                 127 :  -0.498800E+02 -0.315900E+02  PNBOIA_RG    
                 128 :  -0.503500E+02 -0.311500E+02  MOSTARDAS    
                 129 :  -0.517000E+02 -0.321800E+02  RIO_GRANDE   
                 130 :  -0.524700E+02 -0.338100E+02  CHUI         
                 131 :  -0.439500E+02 -0.232800E+02  LHFC_W       
                 132 :  -0.436000E+02 -0.232300E+02  LHFC_E       
                 133 :  -0.409700E+02 -0.209700E+02  ITAOCA_ES    
                 134 :  -0.402600E+02 -0.214900E+02  B_ITAOCA     
                 135 :  -0.472600E+02 -0.274100E+02  B_ITAJAISC   
                 136 :  -0.498400E+02 -0.315600E+02  B_RGRANDE3   
                 137 :  -0.450400E+02 -0.254400E+02  B_SANTOS_2   
                 138 :  -0.422000E+02 -0.236300E+02  B_CBFRIO23   
                 139 :  -0.434186E+02 -0.231660E+02  AD-BGW1      
                 140 :  -0.433549E+02 -0.232421E+02  AD-BGW2      
                 141 :  -0.432679E+02 -0.232989E+02  AD-BGW2      
                 142 :  -0.431674E+02 -0.233252E+02  AD-BGW3      
                 143 :  -0.430635E+02 -0.233202E+02  AD-BGC       
                 144 :  -0.429659E+02 -0.232842E+02  AD-BGE3      
                 145 :  -0.428852E+02 -0.232184E+02  AD-BGE2      
                 146 :  -0.428162E+02 -0.230987E+02  AD-BGE1      
                 147 :  -0.445461E+02 -0.237071E+02  AD-SIGW1     
                 148 :  -0.444441E+02 -0.237624E+02  AD-SIGW2     
                 149 :  -0.442572E+02 -0.238138E+02  AD-SIGW3     
                 150 :  -0.439255E+02 -0.237823E+02  AD-SIGC      
                 151 :  -0.437103E+02 -0.236658E+02  AD-SIGE3     
                 152 :  -0.435657E+02 -0.235512E+02  AD-SIGE2     
                 153 :  -0.434438E+02 -0.234019E+02  AD-SIGE1     
                 154 :  -0.433647E+02 -0.232664E+02  AD-SIGE0     
                 155 :  -0.457608E+02 -0.242458E+02  AD-SSIBW1    
                 156 :  -0.456297E+02 -0.243175E+02  AD-SSIBW2    
                 157 :  -0.454701E+02 -0.243539E+02  AD-SSIBW3    
                 158 :  -0.452284E+02 -0.243347E+02  AD-SSIBC     
                 159 :  -0.450093E+02 -0.242241E+02  AD-SSIBE3    
                 160 :  -0.448927E+02 -0.240407E+02  AD-SSIBE2    
                 161 :  -0.448498E+02 -0.238518E+02  AD-SSIBE1    
                 162 :  -0.448624E+02 -0.236414E+02  AD-SSIBE0    
                 163 :  -0.448624E+02 -0.236414E+02  AD-SSIBE0    

       Type 4 : Restart files                 
      -----------------------------------------
            From     : 2019/08/15 00:00:00 UTC
            To       : 2019/08/17 00:00:00 UTC
            Interval :             6:00:00


       Type 5 : Nesting data                  
      -----------------------------------------
            From     : 2019/08/15 00:00:00 UTC
            To       : 2019/08/20 00:00:00 UTC
            Interval :             1:00:00



  Assigning resources : 
 --------------------------------------------------
       No (other) dedicated output processes.

       grid           comp.      grd    pnt    trk    rst    bpt    prt
      -------------------------------------------------------------------
       glo_icon    00001-00132  00131  00130  -----  00132  00129  -----
       met5_icon   00001-00132  00131  00130  -----  00132  00129  -----
       ant5_icon   00001-00132  00131  00130  -----  00132  00129  -----
      -------------------------------------------------------------------
         Unified point output at 00130
 


  Initializations :
 --------------------------------------------------
       Model number  1 [glo_icon]
          Initializing wave model ...

 *** WAVEWATCH III ERROR IN W3IORS :
     CONFLICTING TIMES: FILE :   20190814  060000
                       MODEL :   20190815  000000

 w3servmd MPI_ABORT, IEXIT=          20
 w3servmd UNIT missing
 w3servmd MSG missing
 w3servmd FILE missing
 w3servmd LINE missing
 w3servmd COMM missing
 w3servmd MPI_ABORT, IEXIT=          20
 w3servmd UNIT missing
 w3servmd MSG missing
 w3servmd FILE missing
 w3servmd LINE missing
 w3servmd COMM missing
 w3servmd MPI_ABORT, IEXIT=          20
 w3servmd UNIT missing
 w3servmd MSG missing
 w3servmd FILE missing
 w3servmd LINE missing
 w3servmd COMM missing
 w3servmd MPI_ABORT, IEXIT=          20
 w3servmd UNIT missing
 w3servmd MSG missing
 w3servmd FILE missing
 w3servmd LINE missing
 w3servmd COMM missing
 w3servmd MPI_ABORT, IEXIT=          20
 w3servmd UNIT missing
 w3servmd MSG missing
 w3servmd FILE missing
 w3servmd LINE missing
 w3servmd COMM missing
 w3servmd MPI_ABORT, IEXIT=          20
 w3servmd UNIT missing
 w3servmd MSG missing
 w3servmd FILE missing
 w3servmd LINE missing
 w3servmd COMM missing
 w3servmd MPI_ABORT, IEXIT=          20
 w3servmd UNIT missing
 w3servmd MSG missing
 w3servmd FILE missing
 w3servmd LINE missing
 w3servmd COMM missing
 w3servmd MPI_ABORT, IEXIT=          20
 w3servmd UNIT missing
 w3servmd MSG missing
 w3servmd FILE missing
 w3servmd LINE missing
 w3servmd COMM missing
 w3servmd MPI_ABORT, IEXIT=          20
 w3servmd UNIT missing
 w3servmd MSG missing
 w3servmd FILE missing
 w3servmd LINE missing
 w3servmd COMM missing
 w3servmd MPI_ABORT, IEXIT=          20
 w3servmd UNIT missing
 w3servmd MSG missing
 w3servmd FILE missing
 w3servmd LINE missing
 w3servmd COMM missing
 w3servmd MPI_ABORT, IEXIT=          20
 w3servmd UNIT missing
 w3servmd MSG missing
 w3servmd FILE missing
 w3servmd LINE missing
 w3servmd COMM missing
 w3servmd MPI_ABORT, IEXIT=          20
 w3servmd UNIT missing
 w3servmd MSG missing
 w3servmd FILE missing
 w3servmd LINE missing
 w3servmd COMM missing
 w3servmd MPI_ABORT, IEXIT=          20
 w3servmd UNIT missing
 w3servmd MSG missing
 w3servmd FILE missing
 w3servmd LINE missing
 w3servmd COMM missing
 w3servmd MPI_ABORT, IEXIT=          20
 w3servmd UNIT missing
 w3servmd MSG missing
 w3servmd FILE missing
 w3servmd LINE missing
 w3servmd COMM missing
 w3servmd MPI_ABORT, IEXIT=          20
 w3servmd UNIT missing
 w3servmd MSG missing
 w3servmd FILE missing
 w3servmd LINE missing
 w3servmd COMM missing
 w3servmd MPI_ABORT, IEXIT=          20
 w3servmd UNIT missing
 w3servmd MSG missing
 w3servmd FILE missing
 w3servmd LINE missing
 w3servmd COMM missing
 w3servmd MPI_ABORT, IEXIT=          20
 w3servmd UNIT missing
 w3servmd MSG missing
 w3servmd FILE missing
 w3servmd LINE missing
 w3servmd COMM missing
 w3servmd MPI_ABORT, IEXIT=          20
 w3servmd UNIT missing
 w3servmd MSG missing
 w3servmd FILE missing
 w3servmd LINE missing
 w3servmd COMM missing
 w3servmd MPI_ABORT, IEXIT=          20
 w3servmd UNIT missing
 w3servmd MSG missing
 w3servmd FILE missing
 w3servmd LINE missing
 w3servmd COMM missing
 w3servmd MPI_ABORT, IEXIT=          20
 w3servmd UNIT missing
 w3servmd MSG missing
 w3servmd FILE missing
 w3servmd LINE missing
 w3servmd COMM missing
 w3servmd MPI_ABORT, IEXIT=          20
 w3servmd UNIT missing
 w3servmd MSG missing
 w3servmd FILE missing
 w3servmd LINE missing
 w3servmd COMM missing
 w3servmd MPI_ABORT, IEXIT=          20
 w3servmd UNIT missing
 w3servmd MSG missing
 w3servmd FILE missing
 w3servmd LINE missing
 w3servmd COMM missing
 w3servmd MPI_ABORT, IEXIT=          20
 w3servmd UNIT missing
 w3servmd MSG missing
 w3servmd FILE missing
 w3servmd LINE missing
 w3servmd COMM missing
 w3servmd MPI_ABORT, IEXIT=          20
 w3servmd UNIT missing
 w3servmd MSG missing
 w3servmd FILE missing
 w3servmd LINE missing
 w3servmd COMM missing
 w3servmd MPI_ABORT, IEXIT=          20
 w3servmd UNIT missing
 w3servmd MSG missing
 w3servmd FILE missing
 w3servmd LINE missing
 w3servmd COMM missing
 w3servmd MPI_ABORT, IEXIT=          20
 w3servmd UNIT missing
 w3servmd MSG missing
 w3servmd FILE missing
 w3servmd LINE missing
 w3servmd COMM missing
 w3servmd MPI_ABORT, IEXIT=          20
 w3servmd UNIT missing
 w3servmd MSG missing
 w3servmd FILE missing
 w3servmd LINE missing
 w3servmd COMM missing
 w3servmd MPI_ABORT, IEXIT=          20
 w3servmd UNIT missing
 w3servmd MSG missing
 w3servmd FILE missing
 w3servmd LINE missing
 w3servmd COMM missing
 w3servmd MPI_ABORT, IEXIT=          20
 w3servmd UNIT missing
 w3servmd MSG missing
 w3servmd FILE missing
 w3servmd LINE missing
 w3servmd COMM missing
 w3servmd MPI_ABORT, IEXIT=          20
 w3servmd UNIT missing
 w3servmd MSG missing
 w3servmd FILE missing
 w3servmd LINE missing
 w3servmd COMM missing
 w3servmd MPI_ABORT, IEXIT=          20
 w3servmd UNIT missing
 w3servmd MSG missing
 w3servmd FILE missing
 w3servmd LINE missing
 w3servmd COMM missing
 w3servmd MPI_ABORT, IEXIT=          20
 w3servmd UNIT missing
 w3servmd MSG missing
 w3servmd FILE missing
 w3servmd LINE missing
 w3servmd COMM missing
 w3servmd MPI_ABORT, IEXIT=          20
 w3servmd UNIT missing
 w3servmd MSG missing
 w3servmd FILE missing
 w3servmd LINE missing
 w3servmd COMM missing
 w3servmd MPI_ABORT, IEXIT=          20
 w3servmd UNIT missing
 w3servmd MSG missing
 w3servmd FILE missing
 w3servmd LINE missing
 w3servmd COMM missing
 w3servmd MPI_ABORT, IEXIT=          20
 w3servmd UNIT missing
 w3servmd MSG missing
 w3servmd FILE missing
 w3servmd LINE missing
 w3servmd COMM missing
 w3servmd MPI_ABORT, IEXIT=          20
 w3servmd UNIT missing
 w3servmd MSG missing
 w3servmd FILE missing
 w3servmd LINE missing
 w3servmd COMM missing
 w3servmd MPI_ABORT, IEXIT=          20
 w3servmd UNIT missing
 w3servmd MSG missing
 w3servmd FILE missing
 w3servmd LINE missing
 w3servmd COMM missing
 w3servmd MPI_ABORT, IEXIT=          20
 w3servmd UNIT missing
 w3servmd MSG missing
 w3servmd FILE missing
 w3servmd LINE missing
 w3servmd COMM missing
 w3servmd MPI_ABORT, IEXIT=          20
 w3servmd UNIT missing
 w3servmd MSG missing
 w3servmd FILE missing
 w3servmd LINE missing
 w3servmd COMM missing
 w3servmd MPI_ABORT, IEXIT=          20
 w3servmd UNIT missing
 w3servmd MSG missing
 w3servmd FILE missing
 w3servmd LINE missing
 w3servmd COMM missing
 w3servmd MPI_ABORT, IEXIT=          20
 w3servmd UNIT missing
 w3servmd MSG missing
 w3servmd FILE missing
 w3servmd LINE missing
 w3servmd COMM missing
 w3servmd MPI_ABORT, IEXIT=          20
 w3servmd UNIT missing
 w3servmd MSG missing
 w3servmd FILE missing
 w3servmd LINE missing
 w3servmd COMM missing
 w3servmd MPI_ABORT, IEXIT=          20
 w3servmd UNIT missing
 w3servmd MSG missing
 w3servmd FILE missing
 w3servmd LINE missing
 w3servmd COMM missing
 w3servmd MPI_ABORT, IEXIT=          20
 w3servmd UNIT missing
 w3servmd MSG missing
 w3servmd FILE missing
 w3servmd LINE missing
 w3servmd COMM missing
 w3servmd MPI_ABORT, IEXIT=          20
 w3servmd UNIT missing
 w3servmd MSG missing
 w3servmd FILE missing
 w3servmd LINE missing
 w3servmd COMM missing
 w3servmd MPI_ABORT, IEXIT=          20
 w3servmd UNIT missing
 w3servmd MSG missing
 w3servmd FILE missing
 w3servmd LINE missing
 w3servmd COMM missing
 w3servmd MPI_ABORT, IEXIT=          20
 w3servmd UNIT missing
 w3servmd MSG missing
 w3servmd FILE missing
 w3servmd LINE missing
 w3servmd COMM missing
 w3servmd MPI_ABORT, IEXIT=          20
 w3servmd UNIT missing
 w3servmd MSG missing
 w3servmd FILE missing
 w3servmd LINE missing
 w3servmd COMM missing
 w3servmd MPI_ABORT, IEXIT=          20
 w3servmd UNIT missing
 w3servmd MSG missing
 w3servmd FILE missing
 w3servmd LINE missing
 w3servmd COMM missing
 w3servmd MPI_ABORT, IEXIT=          20
 w3servmd UNIT missing
 w3servmd MSG missing
 w3servmd FILE missing
 w3servmd LINE missing
 w3servmd COMM missing
 w3servmd MPI_ABORT, IEXIT=          20
 w3servmd UNIT missing
 w3servmd MSG missing
 w3servmd FILE missing
 w3servmd LINE missing
 w3servmd COMM missing
 w3servmd MPI_ABORT, IEXIT=          20
 w3servmd UNIT missing
 w3servmd MSG missing
 w3servmd FILE missing
 w3servmd LINE missing
 w3servmd COMM missing
 w3servmd MPI_ABORT, IEXIT=          20
 w3servmd UNIT missing
 w3servmd MSG missing
 w3servmd FILE missing
 w3servmd LINE missing
 w3servmd COMM missing
 w3servmd MPI_ABORT, IEXIT=          20
 w3servmd UNIT missing
 w3servmd MSG missing
 w3servmd FILE missing
 w3servmd LINE missing
 w3servmd COMM missing
 w3servmd MPI_ABORT, IEXIT=          20
 w3servmd UNIT missing
 w3servmd MSG missing
 w3servmd FILE missing
 w3servmd LINE missing
 w3servmd COMM missing
 w3servmd MPI_ABORT, IEXIT=          20
 w3servmd UNIT missing
 w3servmd MSG missing
 w3servmd FILE missing
 w3servmd LINE missing
 w3servmd COMM missing
 w3servmd MPI_ABORT, IEXIT=          20
 w3servmd UNIT missing
 w3servmd MSG missing
 w3servmd FILE missing
 w3servmd LINE missing
 w3servmd COMM missing
 w3servmd MPI_ABORT, IEXIT=          20
 w3servmd UNIT missing
 w3servmd MSG missing
 w3servmd FILE missing
 w3servmd LINE missing
 w3servmd COMM missing
 w3servmd MPI_ABORT, IEXIT=          20
 w3servmd UNIT missing
 w3servmd MSG missing
 w3servmd FILE missing
 w3servmd LINE missing
 w3servmd COMM missing
 w3servmd MPI_ABORT, IEXIT=          20
 w3servmd UNIT missing
 w3servmd MSG missing
 w3servmd FILE missing
 w3servmd LINE missing
 w3servmd COMM missing
 w3servmd MPI_ABORT, IEXIT=          20
 w3servmd UNIT missing
 w3servmd MSG missing
 w3servmd FILE missing
 w3servmd LINE missing
 w3servmd COMM missing
 w3servmd MPI_ABORT, IEXIT=          20
 w3servmd UNIT missing
 w3servmd MSG missing
 w3servmd FILE missing
 w3servmd LINE missing
 w3servmd COMM missing
 w3servmd MPI_ABORT, IEXIT=          20
 w3servmd UNIT missing
 w3servmd MSG missing
 w3servmd FILE missing
 w3servmd LINE missing
 w3servmd COMM missing
 w3servmd MPI_ABORT, IEXIT=          20
 w3servmd UNIT missing
 w3servmd MSG missing
 w3servmd FILE missing
 w3servmd LINE missing
 w3servmd COMM missing
 w3servmd MPI_ABORT, IEXIT=          20
 w3servmd UNIT missing
 w3servmd MSG missing
 w3servmd FILE missing
 w3servmd LINE missing
 w3servmd COMM missing
 w3servmd MPI_ABORT, IEXIT=          20
 w3servmd UNIT missing
 w3servmd MSG missing
 w3servmd FILE missing
 w3servmd LINE missing
 w3servmd COMM missing
 w3servmd MPI_ABORT, IEXIT=          20
 w3servmd UNIT missing
 w3servmd MSG missing
 w3servmd FILE missing
 w3servmd LINE missing
 w3servmd COMM missing
 w3servmd MPI_ABORT, IEXIT=          20
 w3servmd UNIT missing
 w3servmd MSG missing
 w3servmd FILE missing
 w3servmd LINE missing
 w3servmd COMM missing
 w3servmd MPI_ABORT, IEXIT=          20
 w3servmd UNIT missing
 w3servmd MSG missing
 w3servmd FILE missing
 w3servmd LINE missing
 w3servmd COMM missing
 w3servmd MPI_ABORT, IEXIT=          20
 w3servmd UNIT missing
 w3servmd MSG missing
 w3servmd FILE missing
 w3servmd LINE missing
 w3servmd COMM missing
 w3servmd MPI_ABORT, IEXIT=          20
 w3servmd UNIT missing
 w3servmd MSG missing
 w3servmd FILE missing
 w3servmd LINE missing
 w3servmd COMM missing
 w3servmd MPI_ABORT, IEXIT=          20
 w3servmd UNIT missing
 w3servmd MSG missing
 w3servmd FILE missing
 w3servmd LINE missing
 w3servmd COMM missing
 w3servmd MPI_ABORT, IEXIT=          20
 w3servmd UNIT missing
 w3servmd MSG missing
 w3servmd FILE missing
 w3servmd LINE missing
 w3servmd COMM missing
 w3servmd MPI_ABORT, IEXIT=          20
 w3servmd UNIT missing
 w3servmd MSG missing
 w3servmd FILE missing
 w3servmd LINE missing
 w3servmd COMM missing
 w3servmd MPI_ABORT, IEXIT=          20
 w3servmd UNIT missing
 w3servmd MSG missing
 w3servmd FILE missing
 w3servmd LINE missing
 w3servmd COMM missing
 w3servmd MPI_ABORT, IEXIT=          20
 w3servmd UNIT missing
 w3servmd MSG missing
 w3servmd FILE missing
 w3servmd LINE missing
 w3servmd COMM missing
 w3servmd MPI_ABORT, IEXIT=          20
 w3servmd UNIT missing
 w3servmd MSG missing
 w3servmd FILE missing
 w3servmd LINE missing
 w3servmd COMM missing
 w3servmd MPI_ABORT, IEXIT=          20
 w3servmd UNIT missing
 w3servmd MSG missing
 w3servmd FILE missing
 w3servmd LINE missing
 w3servmd COMM missing
 w3servmd MPI_ABORT, IEXIT=          20
 w3servmd UNIT missing
 w3servmd MSG missing
 w3servmd FILE missing
 w3servmd LINE missing
 w3servmd COMM missing
 w3servmd MPI_ABORT, IEXIT=          20
 w3servmd UNIT missing
 w3servmd MSG missing
 w3servmd FILE missing
 w3servmd LINE missing
 w3servmd COMM missing
 w3servmd MPI_ABORT, IEXIT=          20
 w3servmd UNIT missing
 w3servmd MSG missing
 w3servmd FILE missing
 w3servmd LINE missing
 w3servmd COMM missing
 w3servmd MPI_ABORT, IEXIT=          20
 w3servmd UNIT missing
 w3servmd MSG missing
 w3servmd FILE missing
 w3servmd LINE missing
 w3servmd COMM missing
 w3servmd MPI_ABORT, IEXIT=          20
 w3servmd UNIT missing
 w3servmd MSG missing
 w3servmd FILE missing
 w3servmd LINE missing
 w3servmd COMM missing
 w3servmd MPI_ABORT, IEXIT=          20
 w3servmd UNIT missing
 w3servmd MSG missing
 w3servmd FILE missing
 w3servmd LINE missing
 w3servmd COMM missing
 w3servmd MPI_ABORT, IEXIT=          20
 w3servmd UNIT missing
 w3servmd MSG missing
 w3servmd FILE missing
 w3servmd LINE missing
 w3servmd COMM missing
 w3servmd MPI_ABORT, IEXIT=          20
 w3servmd UNIT missing
 w3servmd MSG missing
 w3servmd FILE missing
 w3servmd LINE missing
 w3servmd COMM missing
 w3servmd MPI_ABORT, IEXIT=          20
 w3servmd UNIT missing
 w3servmd MSG missing
 w3servmd FILE missing
 w3servmd LINE missing
 w3servmd COMM missing
 w3servmd MPI_ABORT, IEXIT=          20
 w3servmd UNIT missing
 w3servmd MSG missing
 w3servmd FILE missing
 w3servmd LINE missing
 w3servmd COMM missing
 w3servmd MPI_ABORT, IEXIT=          20
 w3servmd UNIT missing
 w3servmd MSG missing
 w3servmd FILE missing
 w3servmd LINE missing
 w3servmd COMM missing
 w3servmd MPI_ABORT, IEXIT=          20
 w3servmd UNIT missing
 w3servmd MSG missing
 w3servmd FILE missing
 w3servmd LINE missing
 w3servmd COMM missing
 w3servmd MPI_ABORT, IEXIT=          20
 w3servmd UNIT missing
 w3servmd MSG missing
 w3servmd FILE missing
 w3servmd LINE missing
 w3servmd COMM missing
 w3servmd MPI_ABORT, IEXIT=          20
 w3servmd UNIT missing
 w3servmd MSG missing
 w3servmd FILE missing
 w3servmd LINE missing
 w3servmd COMM missing
 w3servmd MPI_ABORT, IEXIT=          20
 w3servmd UNIT missing
 w3servmd MSG missing
 w3servmd FILE missing
 w3servmd LINE missing
 w3servmd COMM missing
 w3servmd MPI_ABORT, IEXIT=          20
 w3servmd UNIT missing
 w3servmd MSG missing
 w3servmd FILE missing
 w3servmd LINE missing
 w3servmd COMM missing
 w3servmd MPI_ABORT, IEXIT=          20
 w3servmd UNIT missing
 w3servmd MSG missing
 w3servmd FILE missing
 w3servmd LINE missing
 w3servmd COMM missing
 w3servmd MPI_ABORT, IEXIT=          20
 w3servmd UNIT missing
 w3servmd MSG missing
 w3servmd FILE missing
 w3servmd LINE missing
 w3servmd COMM missing
 w3servmd MPI_ABORT, IEXIT=          20
 w3servmd UNIT missing
 w3servmd MSG missing
 w3servmd FILE missing
 w3servmd LINE missing
 w3servmd COMM missing
 w3servmd MPI_ABORT, IEXIT=          20
 w3servmd UNIT missing
 w3servmd MSG missing
 w3servmd FILE missing
 w3servmd LINE missing
 w3servmd COMM missing
 w3servmd MPI_ABORT, IEXIT=          20
 w3servmd UNIT missing
 w3servmd MSG missing
 w3servmd FILE missing
 w3servmd LINE missing
 w3servmd COMM missing
 w3servmd MPI_ABORT, IEXIT=          20
 w3servmd UNIT missing
 w3servmd MSG missing
 w3servmd FILE missing
 w3servmd LINE missing
 w3servmd COMM missing
 w3servmd MPI_ABORT, IEXIT=          20
 w3servmd UNIT missing
 w3servmd MSG missing
 w3servmd FILE missing
 w3servmd LINE missing
 w3servmd COMM missing
 w3servmd MPI_ABORT, IEXIT=          20
 w3servmd UNIT missing
 w3servmd MSG missing
 w3servmd FILE missing
 w3servmd LINE missing
 w3servmd COMM missing
 w3servmd MPI_ABORT, IEXIT=          20
 w3servmd UNIT missing
 w3servmd MSG missing
 w3servmd FILE missing
 w3servmd LINE missing
 w3servmd COMM missing
 w3servmd MPI_ABORT, IEXIT=          20
 w3servmd UNIT missing
 w3servmd MSG missing
 w3servmd FILE missing
 w3servmd LINE missing
 w3servmd COMM missing
 w3servmd MPI_ABORT, IEXIT=          20
 w3servmd UNIT missing
 w3servmd MSG missing
 w3servmd FILE missing
 w3servmd LINE missing
 w3servmd COMM missing
 w3servmd MPI_ABORT, IEXIT=          20
 w3servmd UNIT missing
 w3servmd MSG missing
 w3servmd FILE missing
 w3servmd LINE missing
 w3servmd COMM missing
 w3servmd MPI_ABORT, IEXIT=          20
 w3servmd UNIT missing
 w3servmd MSG missing
 w3servmd FILE missing
 w3servmd LINE missing
 w3servmd COMM missing
 w3servmd MPI_ABORT, IEXIT=          20
 w3servmd UNIT missing
 w3servmd MSG missing
 w3servmd FILE missing
 w3servmd LINE missing
 w3servmd COMM missing
 w3servmd MPI_ABORT, IEXIT=          20
 w3servmd UNIT missing
 w3servmd MSG missing
 w3servmd FILE missing
 w3servmd LINE missing
 w3servmd COMM missing
 w3servmd MPI_ABORT, IEXIT=          20
 w3servmd UNIT missing
 w3servmd MSG missing
 w3servmd FILE missing
 w3servmd LINE missing
 w3servmd COMM missing
 w3servmd MPI_ABORT, IEXIT=          20
 w3servmd UNIT missing
 w3servmd MSG missing
 w3servmd FILE missing
 w3servmd LINE missing
 w3servmd COMM missing
 w3servmd MPI_ABORT, IEXIT=          20
 w3servmd UNIT missing
 w3servmd MSG missing
 w3servmd FILE missing
 w3servmd LINE missing
 w3servmd COMM missing
 w3servmd MPI_ABORT, IEXIT=          20
 w3servmd UNIT missing
 w3servmd MSG missing
 w3servmd FILE missing
 w3servmd LINE missing
 w3servmd COMM missing
 w3servmd MPI_ABORT, IEXIT=          20
 w3servmd UNIT missing
 w3servmd MSG missing
 w3servmd FILE missing
 w3servmd LINE missing
 w3servmd COMM missing
 w3servmd MPI_ABORT, IEXIT=          20
 w3servmd UNIT missing
 w3servmd MSG missing
 w3servmd FILE missing
 w3servmd LINE missing
 w3servmd COMM missing
 w3servmd MPI_ABORT, IEXIT=          20
 w3servmd UNIT missing
 w3servmd MSG missing
 w3servmd FILE missing
 w3servmd LINE missing
 w3servmd COMM missing
 w3servmd MPI_ABORT, IEXIT=          20
 w3servmd UNIT missing
 w3servmd MSG missing
 w3servmd FILE missing
 w3servmd LINE missing
 w3servmd COMM missing
 w3servmd MPI_ABORT, IEXIT=          20
 w3servmd UNIT missing
 w3servmd MSG missing
 w3servmd FILE missing
 w3servmd LINE missing
 w3servmd COMM missing
 w3servmd MPI_ABORT, IEXIT=          20
 w3servmd UNIT missing
 w3servmd MSG missing
 w3servmd FILE missing
 w3servmd LINE missing
 w3servmd COMM missing
 w3servmd MPI_ABORT, IEXIT=          20
 w3servmd UNIT missing
 w3servmd MSG missing
 w3servmd FILE missing
 w3servmd LINE missing
 w3servmd COMM missing
 w3servmd MPI_ABORT, IEXIT=          20
 w3servmd UNIT missing
 w3servmd MSG missing
 w3servmd FILE missing
 w3servmd LINE missing
 w3servmd COMM missing
 w3servmd MPI_ABORT, IEXIT=          20
 w3servmd UNIT missing
 w3servmd MSG missing
 w3servmd FILE missing
 w3servmd LINE missing
 w3servmd COMM missing
 w3servmd MPI_ABORT, IEXIT=          20
 w3servmd UNIT missing
 w3servmd MSG missing
 w3servmd FILE missing
 w3servmd LINE missing
 w3servmd COMM missing
 w3servmd MPI_ABORT, IEXIT=          20
 w3servmd UNIT missing
 w3servmd MSG missing
 w3servmd FILE missing
 w3servmd LINE missing
 w3servmd COMM missing
 w3servmd MPI_ABORT, IEXIT=          20
 w3servmd UNIT missing
 w3servmd MSG missing
 w3servmd FILE missing
 w3servmd LINE missing
 w3servmd COMM missing
 w3servmd MPI_ABORT, IEXIT=          20
 w3servmd UNIT missing
 w3servmd MSG missing
 w3servmd FILE missing
 w3servmd LINE missing
 w3servmd COMM missing
 w3servmd MPI_ABORT, IEXIT=          20
 w3servmd UNIT missing
 w3servmd MSG missing
 w3servmd FILE missing
 w3servmd LINE missing
 w3servmd COMM missing
 w3servmd MPI_ABORT, IEXIT=          20
 w3servmd UNIT missing
 w3servmd MSG missing
 w3servmd FILE missing
 w3servmd LINE missing
 w3servmd COMM missing
 w3servmd MPI_ABORT, IEXIT=          20
 w3servmd UNIT missing
 w3servmd MSG missing
 w3servmd FILE missing
 w3servmd LINE missing
 w3servmd COMM missing
 w3servmd MPI_ABORT, IEXIT=          20
 w3servmd UNIT missing
 w3servmd MSG missing
 w3servmd FILE missing
 w3servmd LINE missing
 w3servmd COMM missing
 w3servmd MPI_ABORT, IEXIT=          20
 w3servmd UNIT missing
 w3servmd MSG missing
 w3servmd FILE missing
 w3servmd LINE missing
 w3servmd COMM missing
 w3servmd MPI_ABORT, IEXIT=          20
 w3servmd UNIT missing
 w3servmd MSG missing
 w3servmd FILE missing
 w3servmd LINE missing
 w3servmd COMM missing

 Copiando os arquivos de output e restarts da rodada do WW3/icon data: 2019081500


 Copiando restarts e outputs do WW3/icon grade glo_icon data: 2019081500


 Copiando restarts e outputs do WW3/icon grade met5_icon data: 2019081500


 Copiando restarts e outputs do WW3/icon grade ant5_icon data: 2019081500

 --------------------------------------------------------------------------------- 
                   ww3_ounf: saídas binárias do WW3 para NETCDF                    
 --------------------------------------------------------------------------------- 
 
 Linkando mod.def da área:  met5_icon
 
 
 Executando ww3_ounf área:  met5_icon  2019081500
 

                  *** WAVEWATCH III Field output postp. ***   
               ===============================================

  Grid name : MET 5m                        


 *** WAVEWATCH III ERROR IN W3IOGO : 
     ERROR IN OPENING FILE
     IOSTAT =   29

 
 Movendo as saídas em netcdf para a pasta Backup 
 

 
 Linkando mod.def da área:  ant5_icon
 
 
 Executando ww3_ounf área:  ant5_icon  2019081500
 

                  *** WAVEWATCH III Field output postp. ***   
               ===============================================

  Grid name : ANT 5m                        


 *** WAVEWATCH III ERROR IN W3IOGO : 
     ERROR IN OPENING FILE
     IOSTAT =   29

 
 Movendo as saídas em netcdf para a pasta Backup 
 

 
 Iniciando a rodada do WW3icon13 Data e HH: 2019081500
 
 
 Linkando mod.def da área:  glo_icon13
 

 ATENÇÃO: Não há restart 20190815 glo_icon13, VOU UTILIZAR UM RESTART FRIO 

 
 Linkando mod.def da área:  met5_icon13
 

 ATENÇÃO: Não há restart 20190815 met5_icon13, VOU UTILIZAR UM RESTART FRIO 

 
 Linkando mod.def da área:  ant5_icon13
 

 ATENÇÃO: Não há restart 20190815 ant5_icon13, VOU UTILIZAR UM RESTART FRIO 

 
 Linkando os mod.def do vento, points, ice e dados de entrada 
 

 Linkando vento icon13 20190815 00


 Não há gelo para a data: 20190814


 Não há gelo para a data: 20190813


 Linkando gelo para a data: 20190812


 Iniciando Execução WW3/icon13 data: 2019081500


                    *** WAVEWATCH III Multi-grid shell ***    
               =================================================

 ========== STARTING MWW3 INITIALIZATION (WMINIT) =============================

  Opening input file ww3_multi.inp (unit number  8)
  Opening output file log.mww3 (unit number  9)

  Comment character : '$'

  Number of grids          :  3
  Input data grids         :  2
  Single point output file : YES/--

  Output server type       :  1
  Single point output proc : YES/--
       Unified point output [points]
          Initializing grids ...

  Input grid information : 
  nr extension  lev.   cur.   wind   ice    data
 -------------------------------------------------
   1 icon13     ---    ---     X     ---    - - -
   2 ice        ---    ---    ---     X     - - -
 -------------------------------------------------

  Grid for point output : 
  nr extension  
 ---------------
     points    
 ---------------

  Wave grid information : 
  nr extension  lev.   cur.   wind   ice    data   move1 rnk grp dmp
 --------------------------------------------------------------------
   1 glo_icon13 ---    ---    icon13 ice    - - -  no     1   1   -
   2 met5_icon1 ---    ---    icon13 ---    - - -  no     2   2   y
   3 ant5_icon1 ---    ---    icon13 ice    - - -  no     3   3   y
 --------------------------------------------------------------------

  Group information : 
  nr   grids (part of comm.)
 --------------------------------------------------------------------
   1    1 (0.0000-1.0000)
   2    2 (0.0000-1.0000)
   3    3 (0.0000-1.0000)
 --------------------------------------------------------------------


  Time interval : 
 --------------------------------------------------
       Starting time : 2019/08/15 00:00:00 UTC
       Ending time   : 2019/08/20 00:00:00 UTC


  Model settings : 
 --------------------------------------------------
       Masking computation in nesting : ---/NO
       Masking output in nesting      : ---/NO


  Output requests : (ALL GRIDS) 
 ==================================================

       Type 1 : Fields of mean wave parameters
      -----------------------------------------
            From     : 2019/08/15 00:00:00 UTC
            To       : 2019/08/20 00:00:00 UTC
            Interval :             1:00:00

            Fields   : Wind speed          
                       Ice concentration   
                       Wave height         
                       Mean wave period(+2)
                       Mean wave period(-1)
                       Mean wave period(+1)
                       Peak frequency      
                       Mean wave dir. a1b1 
                       Mean dir. spr. a1b1 
                       Peak direction      
                       Part. wave height   
                       Part. peak period   
                       Part. mean direction

       Type 2 : Point output                  
      -----------------------------------------
            From     : 2019/08/15 00:00:00 UTC
            To       : 2019/08/20 00:00:00 UTC
            Interval :             1:00:00

            Point  1 :  -0.400587E+02 -0.213393E+02  ANCHIETA     
                   2 :  -0.428398E+02 -0.255438E+02  ANGRA_REIS   
                   3 :  -0.407253E+02 -0.229524E+02  CAMPOS_GOY   
                   4 :  -0.399535E+02 -0.212382E+02  CAPIXABA     
                   5 :  -0.434663E+02 -0.255177E+02  CARAGUATAT   
                   6 :  -0.404251E+02 -0.226484E+02  FLUMINENSE   
                   7 :  -0.398558E+02 -0.218831E+02  FRADE        
                   8 :  -0.432060E+02 -0.256719E+02  ILHABELA     
                   9 :  -0.429442E+02 -0.251399E+02  ITAGUAI      
                  10 :  -0.465283E+02 -0.264658E+02  ITAJAI       
                  11 :  -0.428785E+02 -0.252029E+02  MANGARATIB   
[...]

 --------------------------------------------------------------------------------- 
                   ww3_ounf: saídas binárias do WW3 para NETCDF                    
 --------------------------------------------------------------------------------- 
 
 Linkando mod.def da área:  met5_gfs
 
 
 Executando ww3_ounf área:  met5_gfs  2019081500
 

                  *** WAVEWATCH III Field output postp. ***   
               ===============================================

  Grid name : MET 5m                        


 *** WAVEWATCH III ERROR IN W3IOGO : 
     ERROR IN OPENING FILE
     IOSTAT =   29

 
 Movendo as saídas em netcdf para a pasta Backup 
 

 
 Linkando mod.def da área:  ant5_gfs
 
 
 Executando ww3_ounf área:  ant5_gfs  2019081500
 

                  *** WAVEWATCH III Field output postp. ***   
               ===============================================

  Grid name : ANT 5m                        


 *** WAVEWATCH III ERROR IN W3IOGO : 
     ERROR IN OPENING FILE
     IOSTAT =   29

 
 Movendo as saídas em netcdf para a pasta Backup 
 

 
 Iniciando a rodada do WW3icon Data e HH: 2019081500
 
 
 Linkando mod.def da área:  glo_icon
 

 Linkando e restart da área:  glo_icon

 
 Linkando mod.def da área:  met5_icon
 

 Linkando e restart da área:  met5_icon

 
 Linkando mod.def da área:  ant5_icon
 

 Linkando e restart da área:  ant5_icon

 
 Linkando os mod.def do vento, points, ice e dados de entrada 
 

 Linkando vento icon 20190815 00


 Não há gelo para a data: 20190814


 Não há gelo para a data: 20190813


 Linkando gelo para a data: 20190812


 Iniciando Execução WW3/icon data: 2019081500


 Copiando os arquivos de output e restarts da rodada do WW3/icon data: 2019081500

 Já existe o diretório outdir 

 Copiando restarts e outputs do WW3/icon grade glo_icon data: 2019081500


 Copiando restarts e outputs do WW3/icon grade met5_icon data: 2019081500


 Copiando restarts e outputs do WW3/icon grade ant5_icon data: 2019081500

 --------------------------------------------------------------------------------- 
                   ww3_ounf: saídas binárias do WW3 para NETCDF                    
 --------------------------------------------------------------------------------- 
 
 Linkando mod.def da área:  met5_icon
 
 
 Executando ww3_ounf área:  met5_icon  2019081500
 

                  *** WAVEWATCH III Field output postp. ***   
               ===============================================

  Grid name : MET 5m                        


 *** WAVEWATCH III ERROR IN W3IOGO : 
     ERROR IN OPENING FILE
     IOSTAT =   29

 
 Movendo as saídas em netcdf para a pasta Backup 
 

 
 Linkando mod.def da área:  ant5_icon
 
 
 Executando ww3_ounf área:  ant5_icon  2019081500
 

                  *** WAVEWATCH III Field output postp. ***   
               ===============================================

  Grid name : ANT 5m                        


 *** WAVEWATCH III ERROR IN W3IOGO : 
     ERROR IN OPENING FILE
     IOSTAT =   29

 
 Movendo as saídas em netcdf para a pasta Backup 
 

 
 Iniciando a rodada do WW3cosmo Data e HH: 2019081500
 
 
 Linkando mod.def da área:  met5_cosmo
 

 Linkando e restart da área:  met5_cosmo

 
 Linkando os mod.def do vento, points, ice e dados de entrada 
 

 Linkando vento cosmo 20190815 00


 Linkando arquivos nest do WW3ICON13 para a rodada do WW3/cosmo


 Iniciando Execução WW3/cosmo data: 2019081500


 Copiando os arquivos de output e restarts da rodada do WW3/cosmo data: 2019081500

 Já existe o diretório outdir 

 Copiando restarts e outputs do WW3/cosmo data: 2019081500

 --------------------------------------------------------------------------------- 
                   ww3_ounf: saídas binárias do WW3 para NETCDF                    
 --------------------------------------------------------------------------------- 
 
 Linkando mod.def da área:  met5_cosmo
 
 
 Executando ww3_ounf área:  met5_cosmo  2019081500
 

                  *** WAVEWATCH III Field output postp. ***   
               ===============================================

  Grid name : MET 5m                        


 *** WAVEWATCH III ERROR IN W3IOGO : 
     ERROR IN OPENING FILE
     IOSTAT =   29

 
 Movendo as saídas em netcdf para a pasta Backup 
 

 
 Aguardando Forçante de Vento chegar... sleep: 31
 
 
 Iniciando a rodada do WW3gfs Data e HH: 2019081500
 
 
 Linkando mod.def da área:  glo_gfs
 

 Linkando e restart da área:  glo_gfs

 
 Linkando mod.def da área:  met5_gfs
 

 Linkando e restart da área:  met5_gfs

 
 Linkando mod.def da área:  ant5_gfs
 

 Linkando e restart da área:  ant5_gfs

 
 Linkando os mod.def do vento, points, ice e dados de entrada 
 

 Linkando vento gfs 20190815 00


 Não há gelo para a data: 20190814


 Não há gelo para a data: 20190813


 Linkando gelo para a data: 20190812


 Iniciando Execução WW3/gfs data: 2019081500


 Copiando os arquivos de output e restarts da rodada do WW3/gfs data: 2019081500

 Já existe o diretório outdir 

 Copiando restarts e outputs do WW3/gfs grade glo_gfs data: 2019081500


 Copiando restarts e outputs do WW3/gfs grade met5_gfs data: 2019081500


 Copiando restarts e outputs do WW3/gfs grade ant5_gfs data: 2019081500

 --------------------------------------------------------------------------------- 
                   ww3_ounf: saídas binárias do WW3 para NETCDF                    
 --------------------------------------------------------------------------------- 
 
 Linkando mod.def da área:  met5_gfs
 
 
 Executando ww3_ounf área:  met5_gfs  2019081500
 

                  *** WAVEWATCH III Field output postp. ***   
               ===============================================

  Grid name : MET 5m                        


 *** WAVEWATCH III ERROR IN W3IOGO : 
     ERROR IN OPENING FILE
     IOSTAT =   29

 
 Movendo as saídas em netcdf para a pasta Backup 
 

 
 Linkando mod.def da área:  ant5_gfs
 
 
 Executando ww3_ounf área:  ant5_gfs  2019081500
 

                  *** WAVEWATCH III Field output postp. ***   
               ===============================================

  Grid name : ANT 5m                        


 *** WAVEWATCH III ERROR IN W3IOGO : 
     ERROR IN OPENING FILE
     IOSTAT =   29

 
 Movendo as saídas em netcdf para a pasta Backup 
 

 
 Iniciando a rodada do WW3icon Data e HH: 2019081500
 
 
 Linkando mod.def da área:  glo_icon
 

 Linkando e restart da área:  glo_icon

 
 Linkando mod.def da área:  met5_icon
 

 Linkando e restart da área:  met5_icon

 
 Linkando mod.def da área:  ant5_icon
 

 Linkando e restart da área:  ant5_icon

 
 Linkando os mod.def do vento, points, ice e dados de entrada 
 

 Linkando vento icon 20190815 00


 Não há gelo para a data: 20190814


 Não há gelo para a data: 20190813


 Linkando gelo para a data: 20190812


 Iniciando Execução WW3/icon data: 2019081500


 Copiando os arquivos de output e restarts da rodada do WW3/icon data: 2019081500

 Já existe o diretório outdir 

 Copiando restarts e outputs do WW3/icon grade glo_icon data: 2019081500


 Copiando restarts e outputs do WW3/icon grade met5_icon data: 2019081500


 Copiando restarts e outputs do WW3/icon grade ant5_icon data: 2019081500

 --------------------------------------------------------------------------------- 
                   ww3_ounf: saídas binárias do WW3 para NETCDF                    
 --------------------------------------------------------------------------------- 
 
 Linkando mod.def da área:  met5_icon
 
 
 Executando ww3_ounf área:  met5_icon  2019081500
 

                  *** WAVEWATCH III Field output postp. ***   
               ===============================================

  Grid name : MET 5m                        


 *** WAVEWATCH III ERROR IN W3IOGO : 
     ERROR IN OPENING FILE
     IOSTAT =   29

 
 Movendo as saídas em netcdf para a pasta Backup 
 

 
 Linkando mod.def da área:  ant5_icon
 
 
 Executando ww3_ounf área:  ant5_icon  2019081500
 

                  *** WAVEWATCH III Field output postp. ***   
               ===============================================

  Grid name : ANT 5m                        


 *** WAVEWATCH III ERROR IN W3IOGO : 
     ERROR IN OPENING FILE
     IOSTAT =   29

 
 Movendo as saídas em netcdf para a pasta Backup 
 

 
 Iniciando a rodada do WW3cosmo Data e HH: 2019081500
 
 
 Linkando mod.def da área:  met5_cosmo
 

 Linkando e restart da área:  met5_cosmo

 
 Linkando os mod.def do vento, points, ice e dados de entrada 
 

 Linkando vento cosmo 20190815 00


 Linkando arquivos nest do WW3ICON13 para a rodada do WW3/cosmo


 Iniciando Execução WW3/cosmo data: 2019081500


 Copiando os arquivos de output e restarts da rodada do WW3/cosmo data: 2019081500

 Já existe o diretório outdir 

 Copiando restarts e outputs do WW3/cosmo data: 2019081500

 --------------------------------------------------------------------------------- 
                   ww3_ounf: saídas binárias do WW3 para NETCDF                    
 --------------------------------------------------------------------------------- 
 
 Linkando mod.def da área:  met5_cosmo
 
 
 Executando ww3_ounf área:  met5_cosmo  2019081500
 

                  *** WAVEWATCH III Field output postp. ***   
               ===============================================

  Grid name : MET 5m                        


 *** WAVEWATCH III ERROR IN W3IOGO : 
     ERROR IN OPENING FILE
     IOSTAT =   29

 
 Movendo as saídas em netcdf para a pasta Backup 
 

 
 Aguardando Forçante de Vento chegar... sleep: 32
 
 
 Iniciando a rodada do WW3gfs Data e HH: 2019081500
 
 
 Linkando mod.def da área:  glo_gfs
 

 Linkando e restart da área:  glo_gfs

 
 Linkando mod.def da área:  met5_gfs
 

 Linkando e restart da área:  met5_gfs

 
 Linkando mod.def da área:  ant5_gfs
 

 Linkando e restart da área:  ant5_gfs

 
 Linkando os mod.def do vento, points, ice e dados de entrada 
 

 Linkando vento gfs 20190815 00


 Não há gelo para a data: 20190814


 Não há gelo para a data: 20190813


 Linkando gelo para a data: 20190812


 Iniciando Execução WW3/gfs data: 2019081500


 Copiando os arquivos de output e restarts da rodada do WW3/gfs data: 2019081500

 Já existe o diretório outdir 

 Copiando restarts e outputs do WW3/gfs grade glo_gfs data: 2019081500


 Copiando restarts e outputs do WW3/gfs grade met5_gfs data: 2019081500


 Copiando restarts e outputs do WW3/gfs grade ant5_gfs data: 2019081500

 --------------------------------------------------------------------------------- 
                   ww3_ounf: saídas binárias do WW3 para NETCDF                    
 --------------------------------------------------------------------------------- 
 
 Linkando mod.def da área:  met5_gfs
 
 
 Executando ww3_ounf área:  met5_gfs  2019081500
 

                  *** WAVEWATCH III Field output postp. ***   
               ===============================================

  Grid name : MET 5m                        


 *** WAVEWATCH III ERROR IN W3IOGO : 
     ERROR IN OPENING FILE
     IOSTAT =   29

 
 Movendo as saídas em netcdf para a pasta Backup 
 

 
 Linkando mod.def da área:  ant5_gfs
 
 
 Executando ww3_ounf área:  ant5_gfs  2019081500
 

                  *** WAVEWATCH III Field output postp. ***   
               ===============================================

  Grid name : ANT 5m                        


 *** WAVEWATCH III ERROR IN W3IOGO : 
     ERROR IN OPENING FILE
     IOSTAT =   29

 
 Movendo as saídas em netcdf para a pasta Backup 
 

 
 Iniciando a rodada do WW3icon Data e HH: 2019081500
 
 
 Linkando mod.def da área:  glo_icon
 

 Linkando e restart da área:  glo_icon

 
 Linkando mod.def da área:  met5_icon
 

 Linkando e restart da área:  met5_icon

 
 Linkando mod.def da área:  ant5_icon
 

 Linkando e restart da área:  ant5_icon

 
 Linkando os mod.def do vento, points, ice e dados de entrada 
 

 Linkando vento icon 20190815 00


 Não há gelo para a data: 20190814


 Não há gelo para a data: 20190813


 Linkando gelo para a data: 20190812


 Iniciando Execução WW3/icon data: 2019081500


 Copiando os arquivos de output e restarts da rodada do WW3/icon data: 2019081500

 Já existe o diretório outdir 

 Copiando restarts e outputs do WW3/icon grade glo_icon data: 2019081500


 Copiando restarts e outputs do WW3/icon grade met5_icon data: 2019081500


 Copiando restarts e outputs do WW3/icon grade ant5_icon data: 2019081500

 --------------------------------------------------------------------------------- 
                   ww3_ounf: saídas binárias do WW3 para NETCDF                    
 --------------------------------------------------------------------------------- 
 
 Linkando mod.def da área:  met5_icon
 
 
 Executando ww3_ounf área:  met5_icon  2019081500
 

                  *** WAVEWATCH III Field output postp. ***   
               ===============================================

  Grid name : MET 5m                        


 *** WAVEWATCH III ERROR IN W3IOGO : 
     ERROR IN OPENING FILE
     IOSTAT =   29

 
 Movendo as saídas em netcdf para a pasta Backup 
 

 
 Linkando mod.def da área:  ant5_icon
 
 
 Executando ww3_ounf área:  ant5_icon  2019081500
 

                  *** WAVEWATCH III Field output postp. ***   
               ===============================================

  Grid name : ANT 5m                        


 *** WAVEWATCH III ERROR IN W3IOGO : 
     ERROR IN OPENING FILE
     IOSTAT =   29

 
 Movendo as saídas em netcdf para a pasta Backup 
 

 
 Iniciando a rodada do WW3cosmo Data e HH: 2019081500
 
 
 Linkando mod.def da área:  met5_cosmo
 

 Linkando e restart da área:  met5_cosmo

 
 Linkando os mod.def do vento, points, ice e dados de entrada 
 

 Linkando vento cosmo 20190815 00


 Linkando arquivos nest do WW3ICON13 para a rodada do WW3/cosmo


 Iniciando Execução WW3/cosmo data: 2019081500


 Copiando os arquivos de output e restarts da rodada do WW3/cosmo data: 2019081500

 Já existe o diretório outdir 

 Copiando restarts e outputs do WW3/cosmo data: 2019081500

 --------------------------------------------------------------------------------- 
                   ww3_ounf: saídas binárias do WW3 para NETCDF                    
 --------------------------------------------------------------------------------- 
 
 Linkando mod.def da área:  met5_cosmo
 
 
 Executando ww3_ounf área:  met5_cosmo  2019081500
 

                  *** WAVEWATCH III Field output postp. ***   
               ===============================================

  Grid name : MET 5m                        


 *** WAVEWATCH III ERROR IN W3IOGO : 
     ERROR IN OPENING FILE
     IOSTAT =   29

 
 Movendo as saídas em netcdf para a pasta Backup 
 

 
 Aguardando Forçante de Vento chegar... sleep: 33
 
 
 Iniciando a rodada do WW3gfs Data e HH: 2019081500
 
 
 Linkando mod.def da área:  glo_gfs
 

 Linkando e restart da área:  glo_gfs

 
 Linkando mod.def da área:  met5_gfs
 

 Linkando e restart da área:  met5_gfs

 
 Linkando mod.def da área:  ant5_gfs
 

 Linkando e restart da área:  ant5_gfs

 
 Linkando os mod.def do vento, points, ice e dados de entrada 
 

 Linkando vento gfs 20190815 00


 Não há gelo para a data: 20190814


 Não há gelo para a data: 20190813


 Linkando gelo para a data: 20190812


 Iniciando Execução WW3/gfs data: 2019081500


 Copiando os arquivos de output e restarts da rodada do WW3/gfs data: 2019081500

 Já existe o diretório outdir 

 Copiando restarts e outputs do WW3/gfs grade glo_gfs data: 2019081500


 Copiando restarts e outputs do WW3/gfs grade met5_gfs data: 2019081500


 Copiando restarts e outputs do WW3/gfs grade ant5_gfs data: 2019081500

 --------------------------------------------------------------------------------- 
                   ww3_ounf: saídas binárias do WW3 para NETCDF                    
 --------------------------------------------------------------------------------- 
 
 Linkando mod.def da área:  met5_gfs
 
 
 Executando ww3_ounf área:  met5_gfs  2019081500
 

                  *** WAVEWATCH III Field output postp. ***   
               ===============================================

  Grid name : MET 5m                        


 *** WAVEWATCH III ERROR IN W3IOGO : 
     ERROR IN OPENING FILE
     IOSTAT =   29

 
 Movendo as saídas em netcdf para a pasta Backup 
 

 
 Linkando mod.def da área:  ant5_gfs
 
 
 Executando ww3_ounf área:  ant5_gfs  2019081500
 

                  *** WAVEWATCH III Field output postp. ***   
               ===============================================

  Grid name : ANT 5m                        


 *** WAVEWATCH III ERROR IN W3IOGO : 
     ERROR IN OPENING FILE
     IOSTAT =   29

 
 Movendo as saídas em netcdf para a pasta Backup 
 

 
 Iniciando a rodada do WW3icon Data e HH: 2019081500
 
 
 Linkando mod.def da área:  glo_icon
 

 Linkando e restart da área:  glo_icon

 
 Linkando mod.def da área:  met5_icon
 

 Linkando e restart da área:  met5_icon

 
 Linkando mod.def da área:  ant5_icon
 

 Linkando e restart da área:  ant5_icon

 
 Linkando os mod.def do vento, points, ice e dados de entrada 
 

 Linkando vento icon 20190815 00


 Não há gelo para a data: 20190814


 Não há gelo para a data: 20190813


 Linkando gelo para a data: 20190812


 Iniciando Execução WW3/icon data: 2019081500


 Copiando os arquivos de output e restarts da rodada do WW3/icon data: 2019081500

 Já existe o diretório outdir 

 Copiando restarts e outputs do WW3/icon grade glo_icon data: 2019081500


 Copiando restarts e outputs do WW3/icon grade met5_icon data: 2019081500


 Copiando restarts e outputs do WW3/icon grade ant5_icon data: 2019081500

 --------------------------------------------------------------------------------- 
                   ww3_ounf: saídas binárias do WW3 para NETCDF                    
 --------------------------------------------------------------------------------- 
 
 Linkando mod.def da área:  met5_icon
 
 
 Executando ww3_ounf área:  met5_icon  2019081500
 

                  *** WAVEWATCH III Field output postp. ***   
               ===============================================

  Grid name : MET 5m                        


 *** WAVEWATCH III ERROR IN W3IOGO : 
     ERROR IN OPENING FILE
     IOSTAT =   29

 
 Movendo as saídas em netcdf para a pasta Backup 
 

 
 Linkando mod.def da área:  ant5_icon
 
 
 Executando ww3_ounf área:  ant5_icon  2019081500
 

                  *** WAVEWATCH III Field output postp. ***   
               ===============================================

  Grid name : ANT 5m                        


 *** WAVEWATCH III ERROR IN W3IOGO : 
     ERROR IN OPENING FILE
     IOSTAT =   29

 
 Movendo as saídas em netcdf para a pasta Backup 
 

 
 Iniciando a rodada do WW3cosmo Data e HH: 2019081500
 
 
 Linkando mod.def da área:  met5_cosmo
 

 Linkando e restart da área:  met5_cosmo

 
 Linkando os mod.def do vento, points, ice e dados de entrada 
 

 Linkando vento cosmo 20190815 00


 Linkando arquivos nest do WW3ICON13 para a rodada do WW3/cosmo


 Iniciando Execução WW3/cosmo data: 2019081500


 Copiando os arquivos de output e restarts da rodada do WW3/cosmo data: 2019081500

 Já existe o diretório outdir 

 Copiando restarts e outputs do WW3/cosmo data: 2019081500

 --------------------------------------------------------------------------------- 
                   ww3_ounf: saídas binárias do WW3 para NETCDF                    
 --------------------------------------------------------------------------------- 
 
 Linkando mod.def da área:  met5_cosmo
 
 
 Executando ww3_ounf área:  met5_cosmo  2019081500
 

                  *** WAVEWATCH III Field output postp. ***   
               ===============================================

  Grid name : MET 5m                        


 *** WAVEWATCH III ERROR IN W3IOGO : 
     ERROR IN OPENING FILE
     IOSTAT =   29

 
 Movendo as saídas em netcdf para a pasta Backup 
 

 
 Aguardando Forçante de Vento chegar... sleep: 34
 
