$ WAVEWATCH III Grid output post-processing (GrADS)                            
$ -------------------------------------------------------------------- $
$
 dataini cyc0000  10800  999
$
  N 
  WND HS T01 FP DIR DP
$
 0 999 0 999 T T
$
$ End of input file
