$ WAVEWATCH III Grid output post-processing (GrADS)                            
$ -------------------------------------------------------------------- $
$
 dataini cyc0000  10800  999
$
  N 
  WND ICE HS T02 T0M1 T01 FP DIR SPR DP PHS PTP PDIR 
$
 0 999 0 999 T T
$
$ End of input file
