$ WAVEWATCH III Field preprocessor input file                          
$ -------------------------------------------------------------------- $
$
  'ICE' 'LL'  T T
$
  longitude latitude
$
  ICEC_meansealevel
$
  'ice.nc'
