$ WAVEWATCH III Grid output post-processing                            
$ -------------------------------------------------------------------- $
$
 dataini cyc0000  3600  999
$
  N 
  WND ICE HS T02 T0M1 T01 FP DIR SPR DP PHS PTP PDIR
$
  4 4
  0 1 2
  T
$
 area         
 8
 1 999 1 999 1 1
$
$ End of input file'''
