$ -------------------------------------------------------------------- $
$ WAVEWATCH III NETCDF Point output post-processing                            
$ -------------------------------------------------------------------- $
$
 dataini cyc0000  3600  999
$
 -1
$
 espectro.
$
 10
$
 4
$
 T 150
$
 1
$
 0
$
  3  1  0
$
$ End of input file
