$ WAVEWATCH III Field preprocessor input file                          
$ -------------------------------------------------------------------- $
$
 'WND' 'LL'  T T
$
  x y
$
  UGRD_10maboveground VGRD_10maboveground 
$
 'wnd.nc'
